/*---------------------------------------------------------------------------*\
  =========                 |
  \\      /  F ield         | OpenFOAM: The Open Source CFD Toolbox
   \\    /   O peration     | Website:  https://openfoam.org
    \\  /    A nd           | Version:  13
     \\/     M anipulation  |
\*---------------------------------------------------------------------------*/
Build  : 13-58ed5c2046ef
Exec   : foamRun
Date   : Mar 16 2026
Time   : 21:33:45
Host   : "astormy"
PID    : 57053
I/O    : uncollated
Case   : /home/astormy/OpenFOAM/astormy-13/run/damBreakLaminar
nProcs : 1
sigFpe : Enabling floating point exception trapping (FOAM_SIGFPE).
fileModificationChecking : Monitoring run-time modified files using timeStampMaster (fileModificationSkew 10)
allowSystemOperations : Allowing user-supplied system call operations

// * * * * * * * * * * * * * * * * * * * * * * * * * * * * * * * * * * * * * //
Create time

Create mesh for time = 0

Selecting solver incompressibleVoF
Selecting viscosity model constant
Selecting viscosity model constant
No MRF models present

Courant Number mean: 5e-05 max: 0.0015
Interface Courant Number mean: 0 max: 0
Selecting turbulence model type laminar
    Selecting laminar stress model Stokes
DICPCG:  Solving for pcorr, Initial residual = 1, Final residual = 8.71432e-06, No Iterations 237

PIMPLE: No convergence criteria found


PIMPLE: Operating solver in transient mode with 1 outer corrector
PIMPLE: Operating solver in PISO mode


--> FOAM Warning : 
    From function virtual void Foam::probes::findElements(const Foam::fvMesh&)
    in file probes/probes.C at line 121
    Did not find location (0.5 0.25 10) in any cell. Skipping location.

Starting time loop

Courant Number mean: 0.003 max: 0.00300002
Interface Courant Number mean: 0 max: 0
deltaT = 0.00119048
Time = 0.00119048s

smoothSolver:  Solving for alpha.water, Initial residual = 1, Final residual = 1.9132e-11, No Iterations 1
Phase-1 volume fraction = 0.000119048  Min(alpha.water) = 3.45788e-74  Max(alpha.water) = 1
MULES: maxDeltaLambdaPhiCorrRes 0
MULES: Correcting alpha.water
MULES: maxDeltaLambdaPhiCorrRes 0
MULES: Correcting alpha.water
Phase-1 volume fraction = 0.000119048  Min(alpha.water) = 3.45788e-74  Max(alpha.water) = 1
DICPCG:  Solving for p_rgh, Initial residual = 1, Final residual = 0.046201, No Iterations 195
time step continuity errors : sum local = 5.51004e-06, global = -1.14024e-07
DICPCG:  Solving for p_rgh, Initial residual = 0.000751616, Final residual = 3.02549e-05, No Iterations 188
time step continuity errors : sum local = 2.23458e-07, global = -7.48599e-11
DICPCG:  Solving for p_rgh, Initial residual = 3.03568e-05, Final residual = 9.9151e-08, No Iterations 43
time step continuity errors : sum local = 7.29282e-10, global = 5.87834e-11, cumulative = 5.87834e-11
ExecutionTime = 0.617148 s  ClockTime = 1 s

Courant Number mean: 0.00358338 max: 0.00381794
Interface Courant Number mean: 0 max: 0
deltaT = 0.00139456
Time = 0.00258503s

smoothSolver:  Solving for alpha.water, Initial residual = 0.232144, Final residual = 3.1307e-17, No Iterations 2
Phase-1 volume fraction = 0.000258503  Min(alpha.water) = 7.2199e-72  Max(alpha.water) = 1
MULES: maxDeltaLambdaPhiCorrRes 0
MULES: Correcting alpha.water
MULES: maxDeltaLambdaPhiCorrRes 0
MULES: Correcting alpha.water
Phase-1 volume fraction = 0.000258503  Min(alpha.water) = 7.2199e-72  Max(alpha.water) = 1
DICPCG:  Solving for p_rgh, Initial residual = 0.0163814, Final residual = 0.000643502, No Iterations 193
time step continuity errors : sum local = 6.39823e-06, global = 1.41244e-07
DICPCG:  Solving for p_rgh, Initial residual = 0.141286, Final residual = 0.00657053, No Iterations 14
time step continuity errors : sum local = 2.97539e-07, global = 1.06323e-08
DICPCG:  Solving for p_rgh, Initial residual = 0.00732023, Final residual = 9.53411e-08, No Iterations 228
time step continuity errors : sum local = 3.89385e-12, global = -4.42456e-15, cumulative = 5.8779e-11
ExecutionTime = 0.813936 s  ClockTime = 1 s

Courant Number mean: 0.00421466 max: 0.00479954
Interface Courant Number mean: 0 max: 0
deltaT = 0.001635
Time = 0.00422003s

smoothSolver:  Solving for alpha.water, Initial residual = 0.140286, Final residual = 2.31973e-17, No Iterations 2
Phase-1 volume fraction = 0.000422003  Min(alpha.water) = 1.14172e-69  Max(alpha.water) = 1
MULES: maxDeltaLambdaPhiCorrRes 0
MULES: Correcting alpha.water
MULES: maxDeltaLambdaPhiCorrRes 0
MULES: Correcting alpha.water
Phase-1 volume fraction = 0.000422003  Min(alpha.water) = 1.14172e-69  Max(alpha.water) = 1
DICPCG:  Solving for p_rgh, Initial residual = 0.331874, Final residual = 0.0148943, No Iterations 20
time step continuity errors : sum local = 1.17085e-06, global = -7.10013e-11
DICPCG:  Solving for p_rgh, Initial residual = 0.0109341, Final residual = 0.000532809, No Iterations 135
time step continuity errors : sum local = 5.71888e-08, global = -1.48408e-09
DICPCG:  Solving for p_rgh, Initial residual = 0.000539213, Final residual = 8.49804e-08, No Iterations 217
time step continuity errors : sum local = 9.08264e-12, global = 3.4431e-14, cumulative = 5.88134e-11
ExecutionTime = 0.98061 s  ClockTime = 1 s

Courant Number mean: 0.00496558 max: 0.00607081
Interface Courant Number mean: 0.000193795 max: 0.00607081
deltaT = 0.0019075
Time = 0.00612753s

smoothSolver:  Solving for alpha.water, Initial residual = 0.1044, Final residual = 4.24569e-17, No Iterations 2
Phase-1 volume fraction = 0.000612753  Min(alpha.water) = 1.37477e-67  Max(alpha.water) = 1
MULES: maxDeltaLambdaPhiCorrRes 0
MULES: Correcting alpha.water
MULES: maxDeltaLambdaPhiCorrRes 0
MULES: Correcting alpha.water
Phase-1 volume fraction = 0.000612753  Min(alpha.water) = 1.37477e-67  Max(alpha.water) = 1
DICPCG:  Solving for p_rgh, Initial residual = 0.193728, Final residual = 0.00863326, No Iterations 14
time step continuity errors : sum local = 1.52546e-06, global = 2.73607e-11
DICPCG:  Solving for p_rgh, Initial residual = 0.00713216, Final residual = 0.000349588, No Iterations 114
time step continuity errors : sum local = 7.54374e-08, global = 2.89047e-11
DICPCG:  Solving for p_rgh, Initial residual = 0.000352663, Final residual = 9.47171e-08, No Iterations 215
time step continuity errors : sum local = 2.03634e-11, global = -2.23905e-14, cumulative = 5.8791e-11
ExecutionTime = 1.13304 s  ClockTime = 1 s

Courant Number mean: 0.00582698 max: 0.00767802
Interface Courant Number mean: 0.000242999 max: 0.00767802
deltaT = 0.00219362
Time = 0.00832115s

smoothSolver:  Solving for alpha.water, Initial residual = 0.0844882, Final residual = 1.1384e-16, No Iterations 2
Phase-1 volume fraction = 0.000832115  Min(alpha.water) = 1.011e-65  Max(alpha.water) = 1
MULES: maxDeltaLambdaPhiCorrRes 0
MULES: Correcting alpha.water
MULES: maxDeltaLambdaPhiCorrRes 0
MULES: Correcting alpha.water
Phase-1 volume fraction = 0.000832115  Min(alpha.water) = 1.011e-65  Max(alpha.water) = 1
DICPCG:  Solving for p_rgh, Initial residual = 0.149314, Final residual = 0.00704216, No Iterations 12
time step continuity errors : sum local = 2.32088e-06, global = -5.1231e-13
DICPCG:  Solving for p_rgh, Initial residual = 0.00605125, Final residual = 0.000300474, No Iterations 86
time step continuity errors : sum local = 1.15954e-07, global = 3.67423e-11
DICPCG:  Solving for p_rgh, Initial residual = 0.000302281, Final residual = 8.579e-08, No Iterations 215
time step continuity errors : sum local = 3.3011e-11, global = 5.61407e-13, cumulative = 5.93525e-11
ExecutionTime = 1.27415 s  ClockTime = 2 s

Courant Number mean: 0.00674637 max: 0.00960626
Interface Courant Number mean: 0.00030212 max: 0.00960626
deltaT = 0.00260493
Time = 0.0109261s

smoothSolver:  Solving for alpha.water, Initial residual = 0.0746316, Final residual = 5.52545e-16, No Iterations 2
Phase-1 volume fraction = 0.00109261  Min(alpha.water) = 1.73183e-63  Max(alpha.water) = 1
MULES: maxDeltaLambdaPhiCorrRes 0
MULES: Correcting alpha.water
MULES: maxDeltaLambdaPhiCorrRes 0
MULES: Correcting alpha.water
Phase-1 volume fraction = 0.00109261  Min(alpha.water) = 1.73183e-63  Max(alpha.water) = 1
DICPCG:  Solving for p_rgh, Initial residual = 0.130081, Final residual = 0.00526283, No Iterations 11
time step continuity errors : sum local = 3.24509e-06, global = -9.83085e-13
DICPCG:  Solving for p_rgh, Initial residual = 0.00460915, Final residual = 0.000229077, No Iterations 82
time step continuity errors : sum local = 1.62262e-07, global = 3.00836e-11
DICPCG:  Solving for p_rgh, Initial residual = 0.00023161, Final residual = 9.44215e-08, No Iterations 213
time step continuity errors : sum local = 6.67298e-11, global = -9.06188e-14, cumulative = 5.92618e-11
ExecutionTime = 1.41505 s  ClockTime = 2 s

Courant Number mean: 0.00807628 max: 0.0124991
Interface Courant Number mean: 0.000391259 max: 0.0124991
deltaT = 0.00300569
Time = 0.0139318s

smoothSolver:  Solving for alpha.water, Initial residual = 0.0661462, Final residual = 2.48048e-15, No Iterations 2
Phase-1 volume fraction = 0.00139318  Min(alpha.water) = 1.25829e-61  Max(alpha.water) = 1
MULES: maxDeltaLambdaPhiCorrRes 0
MULES: Correcting alpha.water
MULES: maxDeltaLambdaPhiCorrRes 0
MULES: Correcting alpha.water
Phase-1 volume fraction = 0.00139318  Min(alpha.water) = 1.25829e-61  Max(alpha.water) = 1
DICPCG:  Solving for p_rgh, Initial residual = 0.11511, Final residual = 0.00555624, No Iterations 9
time step continuity errors : sum local = 5.84991e-06, global = -1.19369e-12
DICPCG:  Solving for p_rgh, Initial residual = 0.0049284, Final residual = 0.000239469, No Iterations 62
time step continuity errors : sum local = 2.85321e-07, global = 8.50915e-12
DICPCG:  Solving for p_rgh, Initial residual = 0.00024166, Final residual = 9.13372e-08, No Iterations 214
time step continuity errors : sum local = 1.08625e-10, global = 1.30451e-12, cumulative = 6.05663e-11
ExecutionTime = 1.54917 s  ClockTime = 2 s

Courant Number mean: 0.00940578 max: 0.0158644
Interface Courant Number mean: 0.000494951 max: 0.0158644
deltaT = 0.00360682
Time = 0.0175386s

smoothSolver:  Solving for alpha.water, Initial residual = 0.0624434, Final residual = 1.32024e-14, No Iterations 2
Phase-1 volume fraction = 0.00175386  Min(alpha.water) = 2.58777e-59  Max(alpha.water) = 1
MULES: maxDeltaLambdaPhiCorrRes 0
MULES: Correcting alpha.water
MULES: maxDeltaLambdaPhiCorrRes 0
MULES: Correcting alpha.water
Phase-1 volume fraction = 0.00175386  Min(alpha.water) = 2.58777e-59  Max(alpha.water) = 1
DICPCG:  Solving for p_rgh, Initial residual = 0.108481, Final residual = 0.00524445, No Iterations 5
time step continuity errors : sum local = 9.96227e-06, global = 7.26546e-13
DICPCG:  Solving for p_rgh, Initial residual = 0.00467658, Final residual = 0.00023368, No Iterations 61
time step continuity errors : sum local = 4.99398e-07, global = -4.36648e-13
DICPCG:  Solving for p_rgh, Initial residual = 0.00024057, Final residual = 8.5518e-08, No Iterations 215
time step continuity errors : sum local = 1.82328e-10, global = -3.49597e-14, cumulative = 6.05314e-11
ExecutionTime = 1.68332 s  ClockTime = 2 s

Courant Number mean: 0.0114135 max: 0.0211182
Interface Courant Number mean: 0.00065723 max: 0.0211182
deltaT = 0.00405768
Time = 0.0215963s

smoothSolver:  Solving for alpha.water, Initial residual = 0.0561421, Final residual = 4.89314e-14, No Iterations 2
Phase-1 volume fraction = 0.00215963  Min(alpha.water) = 8.32447e-58  Max(alpha.water) = 1
MULES: maxDeltaLambdaPhiCorrRes 0
MULES: Correcting alpha.water
MULES: maxDeltaLambdaPhiCorrRes 0
MULES: Correcting alpha.water
Phase-1 volume fraction = 0.00215963  Min(alpha.water) = 8.32447e-58  Max(alpha.water) = 1
DICPCG:  Solving for p_rgh, Initial residual = 0.0977546, Final residual = 0.00484815, No Iterations 4
time step continuity errors : sum local = 1.4337e-05, global = -2.63722e-13
DICPCG:  Solving for p_rgh, Initial residual = 0.00437409, Final residual = 0.0002025, No Iterations 56
time step continuity errors : sum local = 6.66172e-07, global = -1.62117e-13
DICPCG:  Solving for p_rgh, Initial residual = 0.000209836, Final residual = 8.94825e-08, No Iterations 215
time step continuity errors : sum local = 2.93867e-10, global = -4.22025e-12, cumulative = 5.63111e-11
ExecutionTime = 1.81878 s  ClockTime = 2 s

Courant Number mean: 0.0129997 max: 0.0263684
Interface Courant Number mean: 0.000819135 max: 0.0263684
deltaT = 0.00473396
Time = 0.0263302s

smoothSolver:  Solving for alpha.water, Initial residual = 0.0533018, Final residual = 1.96223e-13, No Iterations 2
Phase-1 volume fraction = 0.00263302  Min(alpha.water) = 6.42827e-56  Max(alpha.water) = 1
MULES: maxDeltaLambdaPhiCorrRes 0
MULES: Correcting alpha.water
MULES: maxDeltaLambdaPhiCorrRes 0
MULES: Correcting alpha.water
Phase-1 volume fraction = 0.00263302  Min(alpha.water) = 6.42827e-56  Max(alpha.water) = 1
DICPCG:  Solving for p_rgh, Initial residual = 0.0927451, Final residual = 0.00382999, No Iterations 4
time step continuity errors : sum local = 1.85802e-05, global = -6.80378e-12
DICPCG:  Solving for p_rgh, Initial residual = 0.00347835, Final residual = 0.000170657, No Iterations 56
time step continuity errors : sum local = 9.16243e-07, global = -1.29256e-13
DICPCG:  Solving for p_rgh, Initial residual = 0.000178286, Final residual = 8.68533e-08, No Iterations 215
time step continuity errors : sum local = 4.65642e-10, global = -6.65694e-12, cumulative = 4.96542e-11
ExecutionTime = 1.95167 s  ClockTime = 2 s

Courant Number mean: 0.0153838 max: 0.0343167
Interface Courant Number mean: 0.00106442 max: 0.0343167
deltaT = 0.00473396
Time = 0.0310642s

smoothSolver:  Solving for alpha.water, Initial residual = 0.0441448, Final residual = 3.61384e-13, No Iterations 2
Phase-1 volume fraction = 0.00310642  Min(alpha.water) = 1.38726e-55  Max(alpha.water) = 1
MULES: maxDeltaLambdaPhiCorrRes 0
MULES: Correcting alpha.water
MULES: maxDeltaLambdaPhiCorrRes 0
MULES: Correcting alpha.water
Phase-1 volume fraction = 0.00310642  Min(alpha.water) = 1.38726e-55  Max(alpha.water) = 1
DICPCG:  Solving for p_rgh, Initial residual = 0.0771211, Final residual = 0.00283374, No Iterations 4
time step continuity errors : sum local = 1.62984e-05, global = -7.76239e-12
DICPCG:  Solving for p_rgh, Initial residual = 0.00261584, Final residual = 0.000128746, No Iterations 57
time step continuity errors : sum local = 8.06162e-07, global = -3.27641e-13
DICPCG:  Solving for p_rgh, Initial residual = 0.000135969, Final residual = 8.93232e-08, No Iterations 214
time step continuity errors : sum local = 5.58745e-10, global = -6.63462e-12, cumulative = 4.30196e-11
ExecutionTime = 2.08142 s  ClockTime = 2 s

Courant Number mean: 0.0155961 max: 0.0377972
Interface Courant Number mean: 0.00117058 max: 0.0377972
deltaT = 0.00473396
Time = 0.0357981s

smoothSolver:  Solving for alpha.water, Initial residual = 0.0376722, Final residual = 5.7902e-13, No Iterations 2
Phase-1 volume fraction = 0.00357981  Min(alpha.water) = 2.20914e-55  Max(alpha.water) = 1
MULES: maxDeltaLambdaPhiCorrRes 0
MULES: Correcting alpha.water
MULES: maxDeltaLambdaPhiCorrRes 0
MULES: Correcting alpha.water
Phase-1 volume fraction = 0.00357981  Min(alpha.water) = 2.20914e-55  Max(alpha.water) = 1
DICPCG:  Solving for p_rgh, Initial residual = 0.0659786, Final residual = 0.00296726, No Iterations 3
time step continuity errors : sum local = 1.97021e-05, global = -7.16043e-12
DICPCG:  Solving for p_rgh, Initial residual = 0.00278167, Final residual = 0.000137129, No Iterations 50
time step continuity errors : sum local = 9.79468e-07, global = -2.9914e-13
DICPCG:  Solving for p_rgh, Initial residual = 0.000147233, Final residual = 9.88796e-08, No Iterations 213
time step continuity errors : sum local = 7.05825e-10, global = 1.17677e-12, cumulative = 4.41963e-11
ExecutionTime = 2.20994 s  ClockTime = 2 s

Courant Number mean: 0.015805 max: 0.0412339
Interface Courant Number mean: 0.00127507 max: 0.0412339
deltaT = 0.00473396
Time = 0.0405321s

smoothSolver:  Solving for alpha.water, Initial residual = 0.0328547, Final residual = 8.44475e-13, No Iterations 2
Phase-1 volume fraction = 0.00405321  Min(alpha.water) = 3.08952e-55  Max(alpha.water) = 1
MULES: maxDeltaLambdaPhiCorrRes 0
MULES: Correcting alpha.water
MULES: maxDeltaLambdaPhiCorrRes 0
MULES: Correcting alpha.water
Phase-1 volume fraction = 0.00405321  Min(alpha.water) = 3.08952e-55  Max(alpha.water) = 1
DICPCG:  Solving for p_rgh, Initial residual = 0.057633, Final residual = 0.0023699, No Iterations 3
time step continuity errors : sum local = 1.78153e-05, global = 1.34839e-12
DICPCG:  Solving for p_rgh, Initial residual = 0.00224383, Final residual = 0.000106521, No Iterations 51
time step continuity errors : sum local = 8.53708e-07, global = -5.59342e-13
DICPCG:  Solving for p_rgh, Initial residual = 0.000116958, Final residual = 9.99782e-08, No Iterations 212
time step continuity errors : sum local = 8.00905e-10, global = -2.29157e-12, cumulative = 4.19048e-11
ExecutionTime = 2.33544 s  ClockTime = 3 s

Courant Number mean: 0.0160119 max: 0.0446424
Interface Courant Number mean: 0.00137853 max: 0.0446424
deltaT = 0.00473396
Time = 0.045266s

smoothSolver:  Solving for alpha.water, Initial residual = 0.0291295, Final residual = 1.15232e-12, No Iterations 2
Phase-1 volume fraction = 0.0045266  Min(alpha.water) = 4.02514e-55  Max(alpha.water) = 1
MULES: maxDeltaLambdaPhiCorrRes 0
MULES: Correcting alpha.water
MULES: maxDeltaLambdaPhiCorrRes 0
MULES: Correcting alpha.water
Phase-1 volume fraction = 0.0045266  Min(alpha.water) = 4.02514e-55  Max(alpha.water) = 1
DICPCG:  Solving for p_rgh, Initial residual = 0.0513477, Final residual = 0.00195753, No Iterations 3
time step continuity errors : sum local = 1.64178e-05, global = -2.22674e-12
DICPCG:  Solving for p_rgh, Initial residual = 0.00186642, Final residual = 9.18815e-05, No Iterations 52
time step continuity errors : sum local = 8.16004e-07, global = 3.0729e-13
DICPCG:  Solving for p_rgh, Initial residual = 0.000100583, Final residual = 9.51145e-08, No Iterations 208
time step continuity errors : sum local = 8.44416e-10, global = 1.24911e-11, cumulative = 5.43958e-11
ExecutionTime = 2.46527 s  ClockTime = 3 s

Courant Number mean: 0.0162207 max: 0.0480317
Interface Courant Number mean: 0.00148295 max: 0.0480317
deltaT = 0.00473396
Time = 0.05s

smoothSolver:  Solving for alpha.water, Initial residual = 0.0261626, Final residual = 1.49382e-12, No Iterations 2
Phase-1 volume fraction = 0.005  Min(alpha.water) = 5.06178e-55  Max(alpha.water) = 1
MULES: maxDeltaLambdaPhiCorrRes 0
MULES: Correcting alpha.water
MULES: maxDeltaLambdaPhiCorrRes 0
MULES: Correcting alpha.water
Phase-1 volume fraction = 0.005  Min(alpha.water) = 5.06178e-55  Max(alpha.water) = 1
DICPCG:  Solving for p_rgh, Initial residual = 0.0459982, Final residual = 0.00172745, No Iterations 3
time step continuity errors : sum local = 1.59751e-05, global = 2.26529e-11
DICPCG:  Solving for p_rgh, Initial residual = 0.00165585, Final residual = 8.13241e-05, No Iterations 49
time step continuity errors : sum local = 7.91727e-07, global = 5.51404e-13
DICPCG:  Solving for p_rgh, Initial residual = 8.83311e-05, Final residual = 8.80255e-08, No Iterations 211
time step continuity errors : sum local = 8.5677e-10, global = -2.63412e-12, cumulative = 5.17617e-11
ExecutionTime = 2.6794 s  ClockTime = 3 s

Courant Number mean: 0.0164317 max: 0.0514067
Interface Courant Number mean: 0.00158844 max: 0.0514067
deltaT = 0.00555556
Time = 0.0555556s

smoothSolver:  Solving for alpha.water, Initial residual = 0.0277166, Final residual = 4.06113e-12, No Iterations 2
Phase-1 volume fraction = 0.00555556  Min(alpha.water) = 1.96806e-54  Max(alpha.water) = 1
MULES: maxDeltaLambdaPhiCorrRes 0
MULES: Correcting alpha.water
MULES: maxDeltaLambdaPhiCorrRes 0
MULES: Correcting alpha.water
Phase-1 volume fraction = 0.00555556  Min(alpha.water) = 1.96806e-54  Max(alpha.water) = 1
DICPCG:  Solving for p_rgh, Initial residual = 0.0490131, Final residual = 0.00238871, No Iterations 2
time step continuity errors : sum local = 3.29526e-05, global = -1.58494e-11
DICPCG:  Solving for p_rgh, Initial residual = 0.00229858, Final residual = 0.000112819, No Iterations 29
time step continuity errors : sum local = 1.64285e-06, global = 3.87139e-12
DICPCG:  Solving for p_rgh, Initial residual = 0.000127362, Final residual = 8.58174e-08, No Iterations 209
time step continuity errors : sum local = 1.2496e-09, global = 6.06921e-13, cumulative = 5.23686e-11
ExecutionTime = 2.79971 s  ClockTime = 3 s

Courant Number mean: 0.0195831 max: 0.0650206
Interface Courant Number mean: 0.002012 max: 0.0650206
deltaT = 0.00634921
Time = 0.0619048s

smoothSolver:  Solving for alpha.water, Initial residual = 0.0284532, Final residual = 9.99825e-12, No Iterations 2
Phase-1 volume fraction = 0.00619048  Min(alpha.water) = 3.13069e-53  Max(alpha.water) = 1
MULES: maxDeltaLambdaPhiCorrRes 0
MULES: Correcting alpha.water
MULES: maxDeltaLambdaPhiCorrRes 0
MULES: Correcting alpha.water
Phase-1 volume fraction = 0.00619048  Min(alpha.water) = 3.13069e-53  Max(alpha.water) = 1
DICPCG:  Solving for p_rgh, Initial residual = 0.0497237, Final residual = 0.00224782, No Iterations 2
time step continuity errors : sum local = 4.36061e-05, global = 6.67918e-12
DICPCG:  Solving for p_rgh, Initial residual = 0.00217611, Final residual = 0.000103187, No Iterations 34
time step continuity errors : sum local = 2.11543e-06, global = 3.99504e-13
DICPCG:  Solving for p_rgh, Initial residual = 0.000121869, Final residual = 9.10551e-08, No Iterations 211
time step continuity errors : sum local = 1.86678e-09, global = -3.12886e-11, cumulative = 2.10801e-11
ExecutionTime = 2.92068 s  ClockTime = 3 s

Courant Number mean: 0.0227757 max: 0.0804732
Interface Courant Number mean: 0.0024935 max: 0.0804732
deltaT = 0.00761905
Time = 0.0695238s

smoothSolver:  Solving for alpha.water, Initial residual = 0.0305187, Final residual = 3.26041e-11, No Iterations 2
Phase-1 volume fraction = 0.00695238  Min(alpha.water) = 2.79424e-51  Max(alpha.water) = 1
MULES: maxDeltaLambdaPhiCorrRes 0.000845294
MULES: Correcting alpha.water
MULES: maxDeltaLambdaPhiCorrRes 0
MULES: Correcting alpha.water
Phase-1 volume fraction = 0.00695238  Min(alpha.water) = 2.79424e-51  Max(alpha.water) = 1
DICPCG:  Solving for p_rgh, Initial residual = 0.0533174, Final residual = 0.00151275, No Iterations 3
time step continuity errors : sum local = 4.46171e-05, global = -6.48071e-11
DICPCG:  Solving for p_rgh, Initial residual = 0.00145196, Final residual = 7.2344e-05, No Iterations 52
time step continuity errors : sum local = 2.26374e-06, global = 1.84837e-12
DICPCG:  Solving for p_rgh, Initial residual = 0.000100514, Final residual = 9.2949e-08, No Iterations 210
time step continuity errors : sum local = 2.90837e-09, global = -4.1153e-11, cumulative = -2.00729e-11
ExecutionTime = 3.04695 s  ClockTime = 3 s

Courant Number mean: 0.0279013 max: 0.105514
Interface Courant Number mean: 0.00327159 max: 0.105514
deltaT = 0.00761905
Time = 0.0771429s

smoothSolver:  Solving for alpha.water, Initial residual = 0.0272689, Final residual = 2.03337e-10, No Iterations 2
Phase-1 volume fraction = 0.00771429  Min(alpha.water) = 6.7372e-51  Max(alpha.water) = 1
MULES: maxDeltaLambdaPhiCorrRes 0.0009244
MULES: Correcting alpha.water
MULES: maxDeltaLambdaPhiCorrRes 0
MULES: Correcting alpha.water
Phase-1 volume fraction = 0.00771429  Min(alpha.water) = 6.7372e-51  Max(alpha.water) = 1
DICPCG:  Solving for p_rgh, Initial residual = 0.0604458, Final residual = 0.00159747, No Iterations 3
time step continuity errors : sum local = 5.06714e-05, global = -4.30378e-11
DICPCG:  Solving for p_rgh, Initial residual = 0.00156998, Final residual = 7.6341e-05, No Iterations 46
time step continuity errors : sum local = 2.55257e-06, global = 4.6119e-13
DICPCG:  Solving for p_rgh, Initial residual = 9.74529e-05, Final residual = 9.00533e-08, No Iterations 213
time step continuity errors : sum local = 3.01141e-09, global = -1.22861e-12, cumulative = -2.13015e-11
ExecutionTime = 3.17936 s  ClockTime = 3 s

Courant Number mean: 0.028489 max: 0.114356
Interface Courant Number mean: 0.00354698 max: 0.114356
deltaT = 0.00761905
Time = 0.0847619s

smoothSolver:  Solving for alpha.water, Initial residual = 0.0246437, Final residual = 9.11044e-10, No Iterations 2
Phase-1 volume fraction = 0.00847619  Min(alpha.water) = 1.20886e-50  Max(alpha.water) = 1
MULES: maxDeltaLambdaPhiCorrRes 0.00111147
MULES: Correcting alpha.water
MULES: maxDeltaLambdaPhiCorrRes 0
MULES: Correcting alpha.water
Phase-1 volume fraction = 0.00847619  Min(alpha.water) = 1.20886e-50  Max(alpha.water) = 1
DICPCG:  Solving for p_rgh, Initial residual = 0.0641539, Final residual = 0.00149056, No Iterations 3
time step continuity errors : sum local = 5.1486e-05, global = 1.03538e-11
DICPCG:  Solving for p_rgh, Initial residual = 0.00144035, Final residual = 6.92389e-05, No Iterations 40
time step continuity errors : sum local = 2.55495e-06, global = -3.35586e-12
DICPCG:  Solving for p_rgh, Initial residual = 9.33873e-05, Final residual = 8.466e-08, No Iterations 212
time step continuity errors : sum local = 3.12464e-09, global = -4.44746e-11, cumulative = -6.57761e-11
ExecutionTime = 3.30792 s  ClockTime = 4 s

Courant Number mean: 0.0291644 max: 0.123099
Interface Courant Number mean: 0.00381809 max: 0.123099
deltaT = 0.00761905
Time = 0.092381s

smoothSolver:  Solving for alpha.water, Initial residual = 0.0224797, Final residual = 2.90723e-09, No Iterations 2
Phase-1 volume fraction = 0.0092381  Min(alpha.water) = 1.91649e-50  Max(alpha.water) = 1
MULES: maxDeltaLambdaPhiCorrRes 0.00129653
MULES: Correcting alpha.water
MULES: maxDeltaLambdaPhiCorrRes 0
MULES: Correcting alpha.water
Phase-1 volume fraction = 0.0092381  Min(alpha.water) = 1.91649e-50  Max(alpha.water) = 1
DICPCG:  Solving for p_rgh, Initial residual = 0.0633692, Final residual = 0.00309558, No Iterations 2
time step continuity errors : sum local = 0.000118324, global = -5.00491e-11
DICPCG:  Solving for p_rgh, Initial residual = 0.00294142, Final residual = 0.00013901, No Iterations 22
time step continuity errors : sum local = 5.67808e-06, global = 7.09926e-12
DICPCG:  Solving for p_rgh, Initial residual = 0.000168927, Final residual = 9.30367e-08, No Iterations 214
time step continuity errors : sum local = 3.8038e-09, global = -1.68188e-11, cumulative = -8.2595e-11
ExecutionTime = 3.42348 s  ClockTime = 4 s

Courant Number mean: 0.0298599 max: 0.131915
Interface Courant Number mean: 0.00408583 max: 0.131915
deltaT = 0.00761905
Time = 0.1s

smoothSolver:  Solving for alpha.water, Initial residual = 0.0206652, Final residual = 5.00038e-09, No Iterations 2
Phase-1 volume fraction = 0.01  Min(alpha.water) = 2.8503e-50  Max(alpha.water) = 1
MULES: maxDeltaLambdaPhiCorrRes 0.00147293
MULES: Correcting alpha.water
MULES: maxDeltaLambdaPhiCorrRes 0
MULES: Correcting alpha.water
Phase-1 volume fraction = 0.01  Min(alpha.water) = 2.8503e-50  Max(alpha.water) = 1
DICPCG:  Solving for p_rgh, Initial residual = 0.061757, Final residual = 0.00169146, No Iterations 3
time step continuity errors : sum local = 7.14227e-05, global = -1.40847e-11
DICPCG:  Solving for p_rgh, Initial residual = 0.00163195, Final residual = 7.99184e-05, No Iterations 27
time step continuity errors : sum local = 3.5988e-06, global = -1.30149e-12
DICPCG:  Solving for p_rgh, Initial residual = 0.000109836, Final residual = 9.90104e-08, No Iterations 211
time step continuity errors : sum local = 4.4601e-09, global = 1.50515e-11, cumulative = -6.75434e-11
ExecutionTime = 3.61426 s  ClockTime = 4 s

Courant Number mean: 0.0305504 max: 0.141297
Interface Courant Number mean: 0.00435096 max: 0.141297
deltaT = 0.00833333
Time = 0.108333s

smoothSolver:  Solving for alpha.water, Initial residual = 0.0208529, Final residual = 1.59759e-12, No Iterations 3
Phase-1 volume fraction = 0.0108333  Min(alpha.water) = 7.86991e-50  Max(alpha.water) = 1
MULES: maxDeltaLambdaPhiCorrRes 0.0024312
MULES: Correcting alpha.water
MULES: maxDeltaLambdaPhiCorrRes 0
MULES: Correcting alpha.water
Phase-1 volume fraction = 0.0108333  Min(alpha.water) = 7.86991e-50  Max(alpha.water) = 1
DICPCG:  Solving for p_rgh, Initial residual = 0.0640556, Final residual = 0.0017352, No Iterations 3
time step continuity errors : sum local = 9.43981e-05, global = 2.96867e-11
DICPCG:  Solving for p_rgh, Initial residual = 0.00167439, Final residual = 7.92397e-05, No Iterations 29
time step continuity errors : sum local = 4.60852e-06, global = 3.06684e-14
DICPCG:  Solving for p_rgh, Initial residual = 0.000127843, Final residual = 8.45153e-08, No Iterations 212
time step continuity errors : sum local = 4.91611e-09, global = -4.97266e-11, cumulative = -1.1727e-10
ExecutionTime = 3.73347 s  ClockTime = 4 s

Courant Number mean: 0.0342085 max: 0.167482
Interface Courant Number mean: 0.00507709 max: 0.166573
deltaT = 0.00833333
Time = 0.116667s

smoothSolver:  Solving for alpha.water, Initial residual = 0.0192832, Final residual = 2.28265e-12, No Iterations 3
Phase-1 volume fraction = 0.0116667  Min(alpha.water) = 1.52634e-49  Max(alpha.water) = 1
MULES: maxDeltaLambdaPhiCorrRes 0.00255213
MULES: Correcting alpha.water
MULES: maxDeltaLambdaPhiCorrRes 0
MULES: Correcting alpha.water
Phase-1 volume fraction = 0.0116667  Min(alpha.water) = 1.52634e-49  Max(alpha.water) = 1
DICPCG:  Solving for p_rgh, Initial residual = 0.0612357, Final residual = 0.00158323, No Iterations 3
time step continuity errors : sum local = 9.48094e-05, global = -5.598e-11
DICPCG:  Solving for p_rgh, Initial residual = 0.00153878, Final residual = 7.54693e-05, No Iterations 27
time step continuity errors : sum local = 4.81602e-06, global = 5.6183e-12
DICPCG:  Solving for p_rgh, Initial residual = 0.000114221, Final residual = 9.58015e-08, No Iterations 212
time step continuity errors : sum local = 6.11436e-09, global = -6.6332e-12, cumulative = -1.23903e-10
ExecutionTime = 3.85719 s  ClockTime = 4 s

Courant Number mean: 0.0349816 max: 0.199944
Interface Courant Number mean: 0.00539318 max: 0.17859
deltaT = 0.00833333
Time = 0.125s

smoothSolver:  Solving for alpha.water, Initial residual = 0.0179332, Final residual = 3.02548e-12, No Iterations 3
Phase-1 volume fraction = 0.0125  Min(alpha.water) = 2.57843e-49  Max(alpha.water) = 1
MULES: maxDeltaLambdaPhiCorrRes 0.00262586
MULES: Correcting alpha.water
MULES: maxDeltaLambdaPhiCorrRes 0
MULES: Correcting alpha.water
Phase-1 volume fraction = 0.0125  Min(alpha.water) = 2.57843e-49  Max(alpha.water) = 1
DICPCG:  Solving for p_rgh, Initial residual = 0.0587989, Final residual = 0.00168059, No Iterations 3
time step continuity errors : sum local = 0.000110695, global = -8.84287e-12
DICPCG:  Solving for p_rgh, Initial residual = 0.00162977, Final residual = 8.00632e-05, No Iterations 26
time step continuity errors : sum local = 5.60459e-06, global = -3.03918e-12
DICPCG:  Solving for p_rgh, Initial residual = 0.000128536, Final residual = 8.17458e-08, No Iterations 212
time step continuity errors : sum local = 5.72335e-09, global = -1.1381e-11, cumulative = -1.35284e-10
ExecutionTime = 3.9758 s  ClockTime = 4 s

Courant Number mean: 0.0357177 max: 0.229901
Interface Courant Number mean: 0.00569682 max: 0.190805
deltaT = 0.00833333
Time = 0.133333s

smoothSolver:  Solving for alpha.water, Initial residual = 0.0167625, Final residual = 4.81712e-12, No Iterations 3
Phase-1 volume fraction = 0.0133333  Min(alpha.water) = 4.03475e-49  Max(alpha.water) = 1
MULES: maxDeltaLambdaPhiCorrRes 0.00107365
MULES: Correcting alpha.water
MULES: maxDeltaLambdaPhiCorrRes 0
MULES: Correcting alpha.water
Phase-1 volume fraction = 0.0133333  Min(alpha.water) = 4.03475e-49  Max(alpha.water) = 1
DICPCG:  Solving for p_rgh, Initial residual = 0.0573058, Final residual = 0.00233379, No Iterations 3
time step continuity errors : sum local = 0.000168568, global = 6.73879e-13
DICPCG:  Solving for p_rgh, Initial residual = 0.00228165, Final residual = 0.000113564, No Iterations 22
time step continuity errors : sum local = 8.69841e-06, global = 4.92081e-12
DICPCG:  Solving for p_rgh, Initial residual = 0.000155996, Final residual = 9.74438e-08, No Iterations 213
time step continuity errors : sum local = 7.46424e-09, global = -1.12523e-10, cumulative = -2.47808e-10
ExecutionTime = 4.0915 s  ClockTime = 4 s

Courant Number mean: 0.0363958 max: 0.257629
Interface Courant Number mean: 0.00607471 max: 0.203047
deltaT = 0.00833333
Time = 0.141667s

smoothSolver:  Solving for alpha.water, Initial residual = 0.0157422, Final residual = 7.89497e-12, No Iterations 3
Phase-1 volume fraction = 0.0141667  Min(alpha.water) = 6.00915e-49  Max(alpha.water) = 1
MULES: maxDeltaLambdaPhiCorrRes 0.00136588
MULES: Correcting alpha.water
MULES: maxDeltaLambdaPhiCorrRes 0
MULES: Correcting alpha.water
Phase-1 volume fraction = 0.0141667  Min(alpha.water) = 6.00915e-49  Max(alpha.water) = 1
DICPCG:  Solving for p_rgh, Initial residual = 0.0557009, Final residual = 0.00247929, No Iterations 3
time step continuity errors : sum local = 0.00019551, global = -1.2712e-10
DICPCG:  Solving for p_rgh, Initial residual = 0.00246887, Final residual = 0.000103831, No Iterations 17
time step continuity errors : sum local = 8.65812e-06, global = 2.87328e-11
DICPCG:  Solving for p_rgh, Initial residual = 0.000141941, Final residual = 9.8231e-08, No Iterations 209
time step continuity errors : sum local = 8.19238e-09, global = -3.60408e-11, cumulative = -2.83848e-10
ExecutionTime = 4.20673 s  ClockTime = 4 s

Courant Number mean: 0.0370454 max: 0.283698
Interface Courant Number mean: 0.00680283 max: 0.283698
deltaT = 0.00833333
Time = 0.15s

smoothSolver:  Solving for alpha.water, Initial residual = 0.0148455, Final residual = 1.26752e-11, No Iterations 3
Phase-1 volume fraction = 0.015  Min(alpha.water) = 8.63122e-49  Max(alpha.water) = 1
MULES: maxDeltaLambdaPhiCorrRes 0.00152655
MULES: Correcting alpha.water
MULES: maxDeltaLambdaPhiCorrRes 0
MULES: Correcting alpha.water
Phase-1 volume fraction = 0.015  Min(alpha.water) = 8.63122e-49  Max(alpha.water) = 1
DICPCG:  Solving for p_rgh, Initial residual = 0.0539967, Final residual = 0.00231045, No Iterations 3
time step continuity errors : sum local = 0.000198268, global = -3.94519e-11
DICPCG:  Solving for p_rgh, Initial residual = 0.00226255, Final residual = 9.39695e-05, No Iterations 12
time step continuity errors : sum local = 8.5034e-06, global = -2.08841e-11
DICPCG:  Solving for p_rgh, Initial residual = 0.000137244, Final residual = 8.82293e-08, No Iterations 213
time step continuity errors : sum local = 7.98519e-09, global = 9.55326e-11, cumulative = -1.88316e-10
ExecutionTime = 4.39931 s  ClockTime = 5 s

Courant Number mean: 0.0377294 max: 0.308433
Interface Courant Number mean: 0.00712055 max: 0.308433
deltaT = 0.01
Time = 0.16s

smoothSolver:  Solving for alpha.water, Initial residual = 0.0167626, Final residual = 6.16948e-11, No Iterations 3
Phase-1 volume fraction = 0.016  Min(alpha.water) = 8.0691e-48  Max(alpha.water) = 1
MULES: maxDeltaLambdaPhiCorrRes 0.00341453
MULES: Correcting alpha.water
MULES: maxDeltaLambdaPhiCorrRes 0
MULES: Correcting alpha.water
Phase-1 volume fraction = 0.016  Min(alpha.water) = 8.0691e-48  Max(alpha.water) = 1
DICPCG:  Solving for p_rgh, Initial residual = 0.0617756, Final residual = 0.00173676, No Iterations 4
time step continuity errors : sum local = 0.0002165, global = 1.92116e-10
DICPCG:  Solving for p_rgh, Initial residual = 0.00176289, Final residual = 7.43873e-05, No Iterations 21
time step continuity errors : sum local = 9.83689e-06, global = -2.74795e-11
DICPCG:  Solving for p_rgh, Initial residual = 0.000155977, Final residual = 8.61858e-08, No Iterations 162
time step continuity errors : sum local = 1.13953e-08, global = -2.93233e-09, cumulative = -3.12065e-09
ExecutionTime = 4.50058 s  ClockTime = 5 s

Courant Number mean: 0.0466041 max: 0.403024
Interface Courant Number mean: 0.00898492 max: 0.403024
deltaT = 0.01
Time = 0.17s

smoothSolver:  Solving for alpha.water, Initial residual = 0.0158418, Final residual = 1.11437e-10, No Iterations 3
Phase-1 volume fraction = 0.017  Min(alpha.water) = 1.97963e-47  Max(alpha.water) = 1
MULES: maxDeltaLambdaPhiCorrRes 0.00314454
MULES: Correcting alpha.water
MULES: maxDeltaLambdaPhiCorrRes 0
MULES: Correcting alpha.water
Phase-1 volume fraction = 0.017  Min(alpha.water) = 1.97963e-47  Max(alpha.water) = 1
DICPCG:  Solving for p_rgh, Initial residual = 0.0629719, Final residual = 0.00244662, No Iterations 4
time step continuity errors : sum local = 0.00031924, global = -5.94206e-09
DICPCG:  Solving for p_rgh, Initial residual = 0.00239591, Final residual = 0.000108898, No Iterations 15
time step continuity errors : sum local = 1.50284e-05, global = -6.13433e-09
DICPCG:  Solving for p_rgh, Initial residual = 0.000138858, Final residual = 9.89156e-08, No Iterations 210
time step continuity errors : sum local = 1.36485e-08, global = -1.27789e-10, cumulative = -3.24844e-09
ExecutionTime = 4.61396 s  ClockTime = 5 s

Courant Number mean: 0.0479843 max: 0.434495
Interface Courant Number mean: 0.00948678 max: 0.434495
deltaT = 0.01
Time = 0.18s

smoothSolver:  Solving for alpha.water, Initial residual = 0.01527, Final residual = 1.86963e-10, No Iterations 3
Phase-1 volume fraction = 0.018  Min(alpha.water) = 3.78409e-47  Max(alpha.water) = 1
MULES: maxDeltaLambdaPhiCorrRes 0.00344367
MULES: Correcting alpha.water
MULES: maxDeltaLambdaPhiCorrRes 0
MULES: Correcting alpha.water
Phase-1 volume fraction = 0.018  Min(alpha.water) = 3.78409e-47  Max(alpha.water) = 1
DICPCG:  Solving for p_rgh, Initial residual = 0.0619216, Final residual = 0.00305963, No Iterations 4
time step continuity errors : sum local = 0.000403358, global = 2.93842e-09
DICPCG:  Solving for p_rgh, Initial residual = 0.00298092, Final residual = 0.000130001, No Iterations 15
time step continuity errors : sum local = 1.80488e-05, global = 3.23878e-09
DICPCG:  Solving for p_rgh, Initial residual = 0.000196513, Final residual = 9.98681e-08, No Iterations 211
time step continuity errors : sum local = 1.38627e-08, global = -3.1943e-10, cumulative = -3.56787e-09
ExecutionTime = 4.72734 s  ClockTime = 5 s

Courant Number mean: 0.0495874 max: 0.464532
Interface Courant Number mean: 0.00992334 max: 0.464532
deltaT = 0.01
Time = 0.19s

smoothSolver:  Solving for alpha.water, Initial residual = 0.0148658, Final residual = 2.70548e-10, No Iterations 3
Phase-1 volume fraction = 0.019  Min(alpha.water) = 6.46496e-47  Max(alpha.water) = 1
MULES: maxDeltaLambdaPhiCorrRes 0.00183063
MULES: Correcting alpha.water
MULES: maxDeltaLambdaPhiCorrRes 0
MULES: Correcting alpha.water
Phase-1 volume fraction = 0.019  Min(alpha.water) = 6.46496e-47  Max(alpha.water) = 1
DICPCG:  Solving for p_rgh, Initial residual = 0.0631607, Final residual = 0.0031401, No Iterations 5
time step continuity errors : sum local = 0.000368522, global = -5.04193e-10
DICPCG:  Solving for p_rgh, Initial residual = 0.00313951, Final residual = 0.000148849, No Iterations 21
time step continuity errors : sum local = 1.82476e-05, global = -1.26925e-10
DICPCG:  Solving for p_rgh, Initial residual = 0.000312537, Final residual = 9.94403e-08, No Iterations 219
time step continuity errors : sum local = 1.21924e-08, global = 1.71181e-10, cumulative = -3.39669e-09
ExecutionTime = 4.84756 s  ClockTime = 5 s

Courant Number mean: 0.0524527 max: 0.492385
Interface Courant Number mean: 0.0104995 max: 0.492385
deltaT = 0.01
Time = 0.2s

smoothSolver:  Solving for alpha.water, Initial residual = 0.0146713, Final residual = 3.53769e-10, No Iterations 3
Phase-1 volume fraction = 0.02  Min(alpha.water) = 1.02989e-46  Max(alpha.water) = 1
MULES: maxDeltaLambdaPhiCorrRes 0.00248244
MULES: Correcting alpha.water
MULES: maxDeltaLambdaPhiCorrRes 0
MULES: Correcting alpha.water
Phase-1 volume fraction = 0.02  Min(alpha.water) = 1.02989e-46  Max(alpha.water) = 1
DICPCG:  Solving for p_rgh, Initial residual = 0.0692452, Final residual = 0.00247454, No Iterations 6
time step continuity errors : sum local = 0.00022792, global = 2.66157e-10
DICPCG:  Solving for p_rgh, Initial residual = 0.0029286, Final residual = 0.000135681, No Iterations 23
time step continuity errors : sum local = 1.30171e-05, global = -3.29905e-11
DICPCG:  Solving for p_rgh, Initial residual = 0.000414827, Final residual = 9.5715e-08, No Iterations 221
time step continuity errors : sum local = 9.18445e-09, global = 1.25782e-10, cumulative = -3.27091e-09
ExecutionTime = 5.04612 s  ClockTime = 5 s

Courant Number mean: 0.0565075 max: 0.51876
Interface Courant Number mean: 0.0111807 max: 0.51876
deltaT = 0.01
Time = 0.21s

smoothSolver:  Solving for alpha.water, Initial residual = 0.015262, Final residual = 4.1485e-10, No Iterations 3
Phase-1 volume fraction = 0.021  Min(alpha.water) = 1.56157e-46  Max(alpha.water) = 1
MULES: maxDeltaLambdaPhiCorrRes 0.00307077
MULES: Correcting alpha.water
MULES: maxDeltaLambdaPhiCorrRes 0
MULES: Correcting alpha.water
Phase-1 volume fraction = 0.021  Min(alpha.water) = 1.56157e-46  Max(alpha.water) = 1
DICPCG:  Solving for p_rgh, Initial residual = 0.0755217, Final residual = 0.0033987, No Iterations 6
time step continuity errors : sum local = 0.000249815, global = 1.14848e-10
DICPCG:  Solving for p_rgh, Initial residual = 0.00398202, Final residual = 0.000157487, No Iterations 22
time step continuity errors : sum local = 1.21101e-05, global = 2.00624e-11
DICPCG:  Solving for p_rgh, Initial residual = 0.000542285, Final residual = 8.78134e-08, No Iterations 222
time step continuity errors : sum local = 6.75377e-09, global = 1.18395e-10, cumulative = -3.15251e-09
ExecutionTime = 5.17312 s  ClockTime = 5 s

Courant Number mean: 0.0608755 max: 0.543928
Interface Courant Number mean: 0.0117274 max: 0.543928
deltaT = 0.01
Time = 0.22s

smoothSolver:  Solving for alpha.water, Initial residual = 0.0160256, Final residual = 4.60289e-10, No Iterations 3
Phase-1 volume fraction = 0.022  Min(alpha.water) = 2.28178e-46  Max(alpha.water) = 1
MULES: maxDeltaLambdaPhiCorrRes 0.00281472
MULES: Correcting alpha.water
MULES: maxDeltaLambdaPhiCorrRes 0
MULES: Correcting alpha.water
Phase-1 volume fraction = 0.022  Min(alpha.water) = 2.28178e-46  Max(alpha.water) = 1
DICPCG:  Solving for p_rgh, Initial residual = 0.0906597, Final residual = 0.00279798, No Iterations 7
time step continuity errors : sum local = 0.000179757, global = 8.52795e-11
DICPCG:  Solving for p_rgh, Initial residual = 0.00388981, Final residual = 0.000174373, No Iterations 21
time step continuity errors : sum local = 1.153e-05, global = 2.67662e-13
DICPCG:  Solving for p_rgh, Initial residual = 0.00066442, Final residual = 9.77405e-08, No Iterations 222
time step continuity errors : sum local = 6.46435e-09, global = 1.04033e-10, cumulative = -3.04848e-09
ExecutionTime = 5.29933 s  ClockTime = 6 s

Courant Number mean: 0.0648933 max: 0.567675
Interface Courant Number mean: 0.013298 max: 0.567675
deltaT = 0.01
Time = 0.23s

smoothSolver:  Solving for alpha.water, Initial residual = 0.0172561, Final residual = 5.20421e-10, No Iterations 3
Phase-1 volume fraction = 0.023  Min(alpha.water) = 3.2407e-46  Max(alpha.water) = 1
MULES: maxDeltaLambdaPhiCorrRes 0.00297347
MULES: Correcting alpha.water
MULES: maxDeltaLambdaPhiCorrRes 0
MULES: Correcting alpha.water
Phase-1 volume fraction = 0.023  Min(alpha.water) = 3.2407e-46  Max(alpha.water) = 1
DICPCG:  Solving for p_rgh, Initial residual = 0.111376, Final residual = 0.00554823, No Iterations 6
time step continuity errors : sum local = 0.000335502, global = 6.22226e-11
DICPCG:  Solving for p_rgh, Initial residual = 0.00592162, Final residual = 0.000275098, No Iterations 15
time step continuity errors : sum local = 1.75755e-05, global = 1.59838e-12
DICPCG:  Solving for p_rgh, Initial residual = 0.000866088, Final residual = 8.49096e-08, No Iterations 220
time step continuity errors : sum local = 5.4242e-09, global = -6.66075e-12, cumulative = -3.05514e-09
ExecutionTime = 5.42185 s  ClockTime = 6 s

Courant Number mean: 0.0683018 max: 0.590575
Interface Courant Number mean: 0.0185522 max: 0.590575
deltaT = 0.01
Time = 0.24s

smoothSolver:  Solving for alpha.water, Initial residual = 0.0189414, Final residual = 5.94604e-10, No Iterations 3
Phase-1 volume fraction = 0.024  Min(alpha.water) = 4.49857e-46  Max(alpha.water) = 1
MULES: maxDeltaLambdaPhiCorrRes 0.00349708
MULES: Correcting alpha.water
MULES: maxDeltaLambdaPhiCorrRes 0
MULES: Correcting alpha.water
Phase-1 volume fraction = 0.024  Min(alpha.water) = 4.49857e-46  Max(alpha.water) = 1
DICPCG:  Solving for p_rgh, Initial residual = 0.100924, Final residual = 0.00484866, No Iterations 5
time step continuity errors : sum local = 0.000301729, global = -1.22638e-11
DICPCG:  Solving for p_rgh, Initial residual = 0.00529534, Final residual = 0.00025379, No Iterations 16
time step continuity errors : sum local = 1.63436e-05, global = 2.91868e-11
DICPCG:  Solving for p_rgh, Initial residual = 0.000898068, Final residual = 9.34383e-08, No Iterations 220
time step continuity errors : sum local = 6.0274e-09, global = 4.40565e-14, cumulative = -3.05509e-09
ExecutionTime = 5.54284 s  ClockTime = 6 s

Courant Number mean: 0.0712101 max: 0.612846
Interface Courant Number mean: 0.0205762 max: 0.612846
deltaT = 0.01
Time = 0.25s

smoothSolver:  Solving for alpha.water, Initial residual = 0.0201777, Final residual = 7.09689e-10, No Iterations 3
Phase-1 volume fraction = 0.025  Min(alpha.water) = 6.12817e-46  Max(alpha.water) = 1
MULES: maxDeltaLambdaPhiCorrRes 0.00404723
MULES: Correcting alpha.water
MULES: maxDeltaLambdaPhiCorrRes 0
MULES: Correcting alpha.water
Phase-1 volume fraction = 0.025  Min(alpha.water) = 6.12817e-46  Max(alpha.water) = 1
DICPCG:  Solving for p_rgh, Initial residual = 0.139679, Final residual = 0.00508851, No Iterations 5
time step continuity errors : sum local = 0.000321109, global = -3.64558e-11
DICPCG:  Solving for p_rgh, Initial residual = 0.00602333, Final residual = 0.000235772, No Iterations 15
time step continuity errors : sum local = 1.48222e-05, global = -7.86172e-12
DICPCG:  Solving for p_rgh, Initial residual = 0.00103306, Final residual = 9.25546e-08, No Iterations 221
time step continuity errors : sum local = 5.83775e-09, global = 6.65837e-11, cumulative = -2.98851e-09
ExecutionTime = 5.73634 s  ClockTime = 6 s

Courant Number mean: 0.0737068 max: 0.633726
Interface Courant Number mean: 0.0215875 max: 0.633726
deltaT = 0.01
Time = 0.26s

smoothSolver:  Solving for alpha.water, Initial residual = 0.0215836, Final residual = 9.56782e-10, No Iterations 3
Phase-1 volume fraction = 0.026  Min(alpha.water) = 8.21623e-46  Max(alpha.water) = 1
MULES: maxDeltaLambdaPhiCorrRes 0.0134171
MULES: maxDeltaLambdaPhiCorrRes 0.00429284
MULES: Correcting alpha.water
MULES: maxDeltaLambdaPhiCorrRes 0.0173956
MULES: maxDeltaLambdaPhiCorrRes 0.0173956
MULES: maxDeltaLambdaPhiCorrRes 0
MULES: Correcting alpha.water
Phase-1 volume fraction = 0.026  Min(alpha.water) = 8.21623e-46  Max(alpha.water) = 1
DICPCG:  Solving for p_rgh, Initial residual = 0.155424, Final residual = 0.00772724, No Iterations 4
time step continuity errors : sum local = 0.0005054, global = 6.64554e-11
DICPCG:  Solving for p_rgh, Initial residual = 0.0078307, Final residual = 0.00037121, No Iterations 20
time step continuity errors : sum local = 2.52989e-05, global = -2.93165e-11
DICPCG:  Solving for p_rgh, Initial residual = 0.00143945, Final residual = 8.98802e-08, No Iterations 224
time step continuity errors : sum local = 6.16922e-09, global = 8.38282e-11, cumulative = -2.90468e-09
ExecutionTime = 5.85781 s  ClockTime = 6 s

Courant Number mean: 0.0760225 max: 0.653024
Interface Courant Number mean: 0.0220072 max: 0.653024
deltaT = 0.01
Time = 0.27s

smoothSolver:  Solving for alpha.water, Initial residual = 0.0224363, Final residual = 1.40709e-09, No Iterations 3
Phase-1 volume fraction = 0.027  Min(alpha.water) = 1.08674e-45  Max(alpha.water) = 1
MULES: maxDeltaLambdaPhiCorrRes 0.0294711
MULES: maxDeltaLambdaPhiCorrRes 0.0049222
MULES: Correcting alpha.water
MULES: maxDeltaLambdaPhiCorrRes 0.0294711
MULES: maxDeltaLambdaPhiCorrRes 0.0205379
MULES: maxDeltaLambdaPhiCorrRes 3.26713e-05
MULES: Correcting alpha.water
Phase-1 volume fraction = 0.027  Min(alpha.water) = 1.08674e-45  Max(alpha.water) = 1
DICPCG:  Solving for p_rgh, Initial residual = 0.15462, Final residual = 0.00644353, No Iterations 4
time step continuity errors : sum local = 0.000477696, global = 6.83798e-11
DICPCG:  Solving for p_rgh, Initial residual = 0.00707029, Final residual = 0.000338714, No Iterations 12
time step continuity errors : sum local = 2.5092e-05, global = 4.70954e-13
DICPCG:  Solving for p_rgh, Initial residual = 0.00122434, Final residual = 9.86184e-08, No Iterations 221
time step continuity errors : sum local = 7.35293e-09, global = -9.73824e-11, cumulative = -3.00206e-09
ExecutionTime = 5.97749 s  ClockTime = 6 s

Courant Number mean: 0.0780511 max: 0.670277
Interface Courant Number mean: 0.0227467 max: 0.670277
deltaT = 0.01
Time = 0.28s

smoothSolver:  Solving for alpha.water, Initial residual = 0.0234277, Final residual = 2.10285e-09, No Iterations 3
Phase-1 volume fraction = 0.028  Min(alpha.water) = 1.42054e-45  Max(alpha.water) = 1
MULES: maxDeltaLambdaPhiCorrRes 0.0338106
MULES: maxDeltaLambdaPhiCorrRes 0.00834325
MULES: Correcting alpha.water
MULES: maxDeltaLambdaPhiCorrRes 0.0338106
MULES: maxDeltaLambdaPhiCorrRes 0.0286882
MULES: maxDeltaLambdaPhiCorrRes 0.0286866
MULES: maxDeltaLambdaPhiCorrRes 5.27226e-05
MULES: Correcting alpha.water
Phase-1 volume fraction = 0.028  Min(alpha.water) = 1.42054e-45  Max(alpha.water) = 1
DICPCG:  Solving for p_rgh, Initial residual = 0.179174, Final residual = 0.00843019, No Iterations 3
time step continuity errors : sum local = 0.000642978, global = -1.25594e-10
DICPCG:  Solving for p_rgh, Initial residual = 0.00939452, Final residual = 0.000467475, No Iterations 14
time step continuity errors : sum local = 3.56316e-05, global = 2.64386e-11
DICPCG:  Solving for p_rgh, Initial residual = 0.00164411, Final residual = 9.32636e-08, No Iterations 221
time step continuity errors : sum local = 7.18184e-09, global = 4.95594e-11, cumulative = -2.95251e-09
ExecutionTime = 6.09505 s  ClockTime = 6 s

Courant Number mean: 0.0797583 max: 0.684828
Interface Courant Number mean: 0.0219112 max: 0.684828
deltaT = 0.01
Time = 0.29s

smoothSolver:  Solving for alpha.water, Initial residual = 0.0249842, Final residual = 2.97407e-09, No Iterations 3
Phase-1 volume fraction = 0.029  Min(alpha.water) = 1.83786e-45  Max(alpha.water) = 1
MULES: maxDeltaLambdaPhiCorrRes 0.0314536
MULES: maxDeltaLambdaPhiCorrRes 0.00850257
MULES: Correcting alpha.water
MULES: maxDeltaLambdaPhiCorrRes 0.0290057
MULES: maxDeltaLambdaPhiCorrRes 0.0263649
MULES: maxDeltaLambdaPhiCorrRes 0.0195735
MULES: maxDeltaLambdaPhiCorrRes 0.000154764
MULES: Correcting alpha.water
Phase-1 volume fraction = 0.029  Min(alpha.water) = 1.83786e-45  Max(alpha.water) = 1
DICPCG:  Solving for p_rgh, Initial residual = 0.175639, Final residual = 0.00771434, No Iterations 4
time step continuity errors : sum local = 0.000638665, global = 7.03085e-11
DICPCG:  Solving for p_rgh, Initial residual = 0.00775834, Final residual = 0.000378282, No Iterations 13
time step continuity errors : sum local = 3.33995e-05, global = 1.0655e-11
DICPCG:  Solving for p_rgh, Initial residual = 0.0014448, Final residual = 9.95707e-08, No Iterations 221
time step continuity errors : sum local = 8.85821e-09, global = -9.29067e-11, cumulative = -3.04541e-09
ExecutionTime = 6.21447 s  ClockTime = 6 s

Courant Number mean: 0.0812425 max: 0.697512
Interface Courant Number mean: 0.021197 max: 0.697512
deltaT = 0.01
Time = 0.3s

smoothSolver:  Solving for alpha.water, Initial residual = 0.026793, Final residual = 4.33863e-09, No Iterations 3
Phase-1 volume fraction = 0.03  Min(alpha.water) = 2.35624e-45  Max(alpha.water) = 1
MULES: maxDeltaLambdaPhiCorrRes 0.0295709
MULES: maxDeltaLambdaPhiCorrRes 0.0126323
MULES: maxDeltaLambdaPhiCorrRes 0.000810138
MULES: Correcting alpha.water
MULES: maxDeltaLambdaPhiCorrRes 0.0371789
MULES: maxDeltaLambdaPhiCorrRes 0.033329
MULES: maxDeltaLambdaPhiCorrRes 0.0147964
MULES: maxDeltaLambdaPhiCorrRes 7.90379e-05
MULES: Correcting alpha.water
Phase-1 volume fraction = 0.03  Min(alpha.water) = 2.35624e-45  Max(alpha.water) = 1
DICPCG:  Solving for p_rgh, Initial residual = 0.163574, Final residual = 0.00635302, No Iterations 4
time step continuity errors : sum local = 0.000537462, global = -1.27777e-10
DICPCG:  Solving for p_rgh, Initial residual = 0.00676503, Final residual = 0.000313658, No Iterations 13
time step continuity errors : sum local = 2.74225e-05, global = -2.76924e-13
DICPCG:  Solving for p_rgh, Initial residual = 0.00116105, Final residual = 9.45909e-08, No Iterations 220
time step continuity errors : sum local = 8.32118e-09, global = -8.21575e-11, cumulative = -3.12757e-09
ExecutionTime = 6.40768 s  ClockTime = 7 s

Courant Number mean: 0.0826908 max: 0.710556
Interface Courant Number mean: 0.0209062 max: 0.710556
deltaT = 0.01
Time = 0.31s

smoothSolver:  Solving for alpha.water, Initial residual = 0.0280917, Final residual = 7.59146e-09, No Iterations 3
Phase-1 volume fraction = 0.031  Min(alpha.water) = 2.99641e-45  Max(alpha.water) = 1
MULES: maxDeltaLambdaPhiCorrRes 0.0288378
MULES: maxDeltaLambdaPhiCorrRes 0.0178428
MULES: maxDeltaLambdaPhiCorrRes 0.000688401
MULES: Correcting alpha.water
MULES: maxDeltaLambdaPhiCorrRes 0.0409809
MULES: maxDeltaLambdaPhiCorrRes 0.0403262
MULES: maxDeltaLambdaPhiCorrRes 0.0240603
MULES: maxDeltaLambdaPhiCorrRes 9.35858e-05
MULES: Correcting alpha.water
Phase-1 volume fraction = 0.031  Min(alpha.water) = 2.99641e-45  Max(alpha.water) = 1
DICPCG:  Solving for p_rgh, Initial residual = 0.231256, Final residual = 0.00965885, No Iterations 3
time step continuity errors : sum local = 0.000888605, global = -1.0089e-10
DICPCG:  Solving for p_rgh, Initial residual = 0.0107685, Final residual = 0.000488786, No Iterations 19
time step continuity errors : sum local = 4.61555e-05, global = -7.87528e-14
DICPCG:  Solving for p_rgh, Initial residual = 0.00193797, Final residual = 9.19737e-08, No Iterations 224
time step continuity errors : sum local = 8.75084e-09, global = 1.35437e-10, cumulative = -2.99213e-09
ExecutionTime = 6.52976 s  ClockTime = 7 s

Courant Number mean: 0.0842483 max: 0.735848
Interface Courant Number mean: 0.0202776 max: 0.735848
deltaT = 0.01
Time = 0.32s

smoothSolver:  Solving for alpha.water, Initial residual = 0.0310563, Final residual = 5.22936e-11, No Iterations 4
Phase-1 volume fraction = 0.032  Min(alpha.water) = 3.78276e-45  Max(alpha.water) = 1
MULES: maxDeltaLambdaPhiCorrRes 0.0415794
MULES: maxDeltaLambdaPhiCorrRes 0.0185232
MULES: maxDeltaLambdaPhiCorrRes 0.00118043
MULES: Correcting alpha.water
MULES: maxDeltaLambdaPhiCorrRes 0.051609
MULES: maxDeltaLambdaPhiCorrRes 0.0456394
MULES: maxDeltaLambdaPhiCorrRes 0.0226514
MULES: maxDeltaLambdaPhiCorrRes 0.00010815
MULES: Correcting alpha.water
Phase-1 volume fraction = 0.032  Min(alpha.water) = 3.78276e-45  Max(alpha.water) = 1
DICPCG:  Solving for p_rgh, Initial residual = 0.169679, Final residual = 0.00844429, No Iterations 4
time step continuity errors : sum local = 0.00078356, global = 1.59704e-10
DICPCG:  Solving for p_rgh, Initial residual = 0.00926323, Final residual = 0.000460459, No Iterations 21
time step continuity errors : sum local = 4.53605e-05, global = -3.73062e-11
DICPCG:  Solving for p_rgh, Initial residual = 0.00165459, Final residual = 9.1092e-08, No Iterations 225
time step continuity errors : sum local = 9.08692e-09, global = 9.84266e-11, cumulative = -2.89371e-09
ExecutionTime = 6.65324 s  ClockTime = 7 s

Courant Number mean: 0.0861955 max: 0.762547
Interface Courant Number mean: 0.0198693 max: 0.762547
deltaT = 0.01
Time = 0.33s

smoothSolver:  Solving for alpha.water, Initial residual = 0.0304732, Final residual = 5.98035e-11, No Iterations 4
Phase-1 volume fraction = 0.033  Min(alpha.water) = 4.74392e-45  Max(alpha.water) = 1
MULES: maxDeltaLambdaPhiCorrRes 0.0341764
MULES: maxDeltaLambdaPhiCorrRes 0.0163899
MULES: maxDeltaLambdaPhiCorrRes 0.00130522
MULES: Correcting alpha.water
MULES: maxDeltaLambdaPhiCorrRes 0.0519565
MULES: maxDeltaLambdaPhiCorrRes 0.0477236
MULES: maxDeltaLambdaPhiCorrRes 0.0225383
MULES: maxDeltaLambdaPhiCorrRes 0.000348298
MULES: Correcting alpha.water
Phase-1 volume fraction = 0.033  Min(alpha.water) = 4.74392e-45  Max(alpha.water) = 1
DICPCG:  Solving for p_rgh, Initial residual = 0.21333, Final residual = 0.00718835, No Iterations 3
time step continuity errors : sum local = 0.000737118, global = 1.45388e-10
DICPCG:  Solving for p_rgh, Initial residual = 0.00958276, Final residual = 0.000441163, No Iterations 16
time step continuity errors : sum local = 4.55975e-05, global = 4.96422e-11
DICPCG:  Solving for p_rgh, Initial residual = 0.00184186, Final residual = 9.13848e-08, No Iterations 224
time step continuity errors : sum local = 9.52852e-09, global = 2.19453e-10, cumulative = -2.67425e-09
ExecutionTime = 6.77372 s  ClockTime = 7 s

Courant Number mean: 0.0881647 max: 0.78288
Interface Courant Number mean: 0.0204572 max: 0.78288
deltaT = 0.01
Time = 0.34s

smoothSolver:  Solving for alpha.water, Initial residual = 0.0333778, Final residual = 1.02509e-10, No Iterations 4
Phase-1 volume fraction = 0.034  Min(alpha.water) = 5.91368e-45  Max(alpha.water) = 1
MULES: maxDeltaLambdaPhiCorrRes 0.0435175
MULES: maxDeltaLambdaPhiCorrRes 0.0264238
MULES: maxDeltaLambdaPhiCorrRes 0.00458883
MULES: Correcting alpha.water
MULES: maxDeltaLambdaPhiCorrRes 0.0574029
MULES: maxDeltaLambdaPhiCorrRes 0.0574029
MULES: maxDeltaLambdaPhiCorrRes 0.0272165
MULES: maxDeltaLambdaPhiCorrRes 0.0160565
MULES: maxDeltaLambdaPhiCorrRes 0.000184359
MULES: Correcting alpha.water
Phase-1 volume fraction = 0.034  Min(alpha.water) = 5.91368e-45  Max(alpha.water) = 1
DICPCG:  Solving for p_rgh, Initial residual = 0.190991, Final residual = 0.00827575, No Iterations 3
time step continuity errors : sum local = 0.000865254, global = 2.45585e-10
DICPCG:  Solving for p_rgh, Initial residual = 0.0102197, Final residual = 0.000480407, No Iterations 18
time step continuity errors : sum local = 5.31712e-05, global = -1.45109e-11
DICPCG:  Solving for p_rgh, Initial residual = 0.0017687, Final residual = 9.97827e-08, No Iterations 222
time step continuity errors : sum local = 1.11669e-08, global = 1.7227e-10, cumulative = -2.50198e-09
ExecutionTime = 6.89533 s  ClockTime = 7 s

Courant Number mean: 0.0907631 max: 0.784557
Interface Courant Number mean: 0.0217165 max: 0.784557
deltaT = 0.01
Time = 0.35s

smoothSolver:  Solving for alpha.water, Initial residual = 0.03195, Final residual = 1.06341e-10, No Iterations 4
Phase-1 volume fraction = 0.035  Min(alpha.water) = 7.33158e-45  Max(alpha.water) = 1
MULES: maxDeltaLambdaPhiCorrRes 0.0450452
MULES: maxDeltaLambdaPhiCorrRes 0.025695
MULES: maxDeltaLambdaPhiCorrRes 0.00219675
MULES: Correcting alpha.water
MULES: maxDeltaLambdaPhiCorrRes 0.0629771
MULES: maxDeltaLambdaPhiCorrRes 0.0567475
MULES: maxDeltaLambdaPhiCorrRes 0.0208182
MULES: maxDeltaLambdaPhiCorrRes 0.000169397
MULES: Correcting alpha.water
Phase-1 volume fraction = 0.035  Min(alpha.water) = 7.33158e-45  Max(alpha.water) = 1
DICPCG:  Solving for p_rgh, Initial residual = 0.20514, Final residual = 0.00548164, No Iterations 3
time step continuity errors : sum local = 0.000597917, global = 1.81135e-10
DICPCG:  Solving for p_rgh, Initial residual = 0.00829866, Final residual = 0.000407432, No Iterations 26
time step continuity errors : sum local = 4.45401e-05, global = 7.52154e-12
DICPCG:  Solving for p_rgh, Initial residual = 0.00179624, Final residual = 9.96189e-08, No Iterations 223
time step continuity errors : sum local = 1.10155e-08, global = 1.75235e-10, cumulative = -2.32675e-09
ExecutionTime = 7.09532 s  ClockTime = 7 s

Courant Number mean: 0.0929075 max: 0.793647
Interface Courant Number mean: 0.0221451 max: 0.793647
deltaT = 0.01
Time = 0.36s

smoothSolver:  Solving for alpha.water, Initial residual = 0.0325808, Final residual = 9.09001e-11, No Iterations 4
Phase-1 volume fraction = 0.036  Min(alpha.water) = 9.0443e-45  Max(alpha.water) = 1
MULES: maxDeltaLambdaPhiCorrRes 0.0522516
MULES: maxDeltaLambdaPhiCorrRes 0.0332343
MULES: maxDeltaLambdaPhiCorrRes 0.00785461
MULES: Correcting alpha.water
MULES: maxDeltaLambdaPhiCorrRes 0.0624786
MULES: maxDeltaLambdaPhiCorrRes 0.0624786
MULES: maxDeltaLambdaPhiCorrRes 0.0352439
MULES: maxDeltaLambdaPhiCorrRes 0.00236928
MULES: Correcting alpha.water
Phase-1 volume fraction = 0.036  Min(alpha.water) = 9.0443e-45  Max(alpha.water) = 1
DICPCG:  Solving for p_rgh, Initial residual = 0.190084, Final residual = 0.00601814, No Iterations 3
time step continuity errors : sum local = 0.000661037, global = 1.70793e-10
DICPCG:  Solving for p_rgh, Initial residual = 0.00893971, Final residual = 0.000420825, No Iterations 17
time step continuity errors : sum local = 4.79428e-05, global = 1.37045e-11
DICPCG:  Solving for p_rgh, Initial residual = 0.00170384, Final residual = 8.95541e-08, No Iterations 222
time step continuity errors : sum local = 1.02859e-08, global = 1.43423e-10, cumulative = -2.18333e-09
ExecutionTime = 7.21677 s  ClockTime = 7 s

Courant Number mean: 0.0954311 max: 0.799814
Interface Courant Number mean: 0.0242064 max: 0.799814
deltaT = 0.01
Time = 0.37s

smoothSolver:  Solving for alpha.water, Initial residual = 0.0316348, Final residual = 9.6057e-11, No Iterations 4
Phase-1 volume fraction = 0.037  Min(alpha.water) = 1.1106e-44  Max(alpha.water) = 1
MULES: maxDeltaLambdaPhiCorrRes 0.0562649
MULES: maxDeltaLambdaPhiCorrRes 0.0257472
MULES: maxDeltaLambdaPhiCorrRes 0.00109501
MULES: Correcting alpha.water
MULES: maxDeltaLambdaPhiCorrRes 0.0677139
MULES: maxDeltaLambdaPhiCorrRes 0.0568832
MULES: maxDeltaLambdaPhiCorrRes 0.0284137
MULES: maxDeltaLambdaPhiCorrRes 0.00375332
MULES: Correcting alpha.water
Phase-1 volume fraction = 0.037  Min(alpha.water) = 1.1106e-44  Max(alpha.water) = 1
DICPCG:  Solving for p_rgh, Initial residual = 0.203207, Final residual = 0.00948709, No Iterations 2
time step continuity errors : sum local = 0.00109045, global = 1.1124e-10
DICPCG:  Solving for p_rgh, Initial residual = 0.0113833, Final residual = 0.000511322, No Iterations 17
time step continuity errors : sum local = 5.95462e-05, global = -6.52102e-12
DICPCG:  Solving for p_rgh, Initial residual = 0.00206663, Final residual = 9.80213e-08, No Iterations 220
time step continuity errors : sum local = 1.15008e-08, global = 1.14781e-10, cumulative = -2.06854e-09
ExecutionTime = 7.33526 s  ClockTime = 8 s

Courant Number mean: 0.0974021 max: 0.800748
Interface Courant Number mean: 0.0242285 max: 0.800748
deltaT = 0.01
Time = 0.38s

smoothSolver:  Solving for alpha.water, Initial residual = 0.0322819, Final residual = 1.19802e-10, No Iterations 4
Phase-1 volume fraction = 0.038  Min(alpha.water) = 1.35797e-44  Max(alpha.water) = 1
MULES: maxDeltaLambdaPhiCorrRes 0.0598472
MULES: maxDeltaLambdaPhiCorrRes 0.032187
MULES: maxDeltaLambdaPhiCorrRes 0.00844961
MULES: Correcting alpha.water
MULES: maxDeltaLambdaPhiCorrRes 0.0558146
MULES: maxDeltaLambdaPhiCorrRes 0.0558146
MULES: maxDeltaLambdaPhiCorrRes 0.0217927
MULES: maxDeltaLambdaPhiCorrRes 0.00687385
MULES: Correcting alpha.water
Phase-1 volume fraction = 0.038  Min(alpha.water) = 1.35797e-44  Max(alpha.water) = 1
DICPCG:  Solving for p_rgh, Initial residual = 0.182896, Final residual = 0.00593194, No Iterations 3
time step continuity errors : sum local = 0.000697622, global = 9.48912e-11
DICPCG:  Solving for p_rgh, Initial residual = 0.00779514, Final residual = 0.000375071, No Iterations 19
time step continuity errors : sum local = 4.58021e-05, global = -6.6582e-14
DICPCG:  Solving for p_rgh, Initial residual = 0.0013894, Final residual = 9.79882e-08, No Iterations 220
time step continuity errors : sum local = 1.21026e-08, global = 2.04469e-10, cumulative = -1.86408e-09
ExecutionTime = 7.45611 s  ClockTime = 8 s

Courant Number mean: 0.0990288 max: 0.794028
Interface Courant Number mean: 0.0241079 max: 0.794028
deltaT = 0.01
Time = 0.39s

smoothSolver:  Solving for alpha.water, Initial residual = 0.0303791, Final residual = 1.54185e-10, No Iterations 4
Phase-1 volume fraction = 0.039  Min(alpha.water) = 1.65389e-44  Max(alpha.water) = 1
MULES: maxDeltaLambdaPhiCorrRes 0.0513123
MULES: maxDeltaLambdaPhiCorrRes 0.0257834
MULES: maxDeltaLambdaPhiCorrRes 0.00276363
MULES: Correcting alpha.water
MULES: maxDeltaLambdaPhiCorrRes 0.070203
MULES: maxDeltaLambdaPhiCorrRes 0.0654513
MULES: maxDeltaLambdaPhiCorrRes 0.0356793
MULES: maxDeltaLambdaPhiCorrRes 1.16903e-05
MULES: Correcting alpha.water
Phase-1 volume fraction = 0.039  Min(alpha.water) = 1.65389e-44  Max(alpha.water) = 1
DICPCG:  Solving for p_rgh, Initial residual = 0.17857, Final residual = 0.00886408, No Iterations 2
time step continuity errors : sum local = 0.00109595, global = 2.08057e-10
DICPCG:  Solving for p_rgh, Initial residual = 0.0106026, Final residual = 0.000480301, No Iterations 18
time step continuity errors : sum local = 5.98837e-05, global = -3.31518e-11
DICPCG:  Solving for p_rgh, Initial residual = 0.00194435, Final residual = 8.47801e-08, No Iterations 222
time step continuity errors : sum local = 1.06745e-08, global = 1.09478e-10, cumulative = -1.7546e-09
ExecutionTime = 7.5776 s  ClockTime = 8 s

Courant Number mean: 0.10002 max: 0.793571
Interface Courant Number mean: 0.0247889 max: 0.789613
deltaT = 0.01
Time = 0.4s

smoothSolver:  Solving for alpha.water, Initial residual = 0.0307426, Final residual = 2.19959e-10, No Iterations 4
Phase-1 volume fraction = 0.04  Min(alpha.water) = 2.00688e-44  Max(alpha.water) = 1
MULES: maxDeltaLambdaPhiCorrRes 0.0635046
MULES: maxDeltaLambdaPhiCorrRes 0.0420364
MULES: maxDeltaLambdaPhiCorrRes 0.00799954
MULES: Correcting alpha.water
MULES: maxDeltaLambdaPhiCorrRes 0.0739604
MULES: maxDeltaLambdaPhiCorrRes 0.061458
MULES: maxDeltaLambdaPhiCorrRes 0.0122082
MULES: maxDeltaLambdaPhiCorrRes 0.00262087
MULES: Correcting alpha.water
Phase-1 volume fraction = 0.04  Min(alpha.water) = 2.00688e-44  Max(alpha.water) = 1
DICPCG:  Solving for p_rgh, Initial residual = 0.178252, Final residual = 0.00886901, No Iterations 2
time step continuity errors : sum local = 0.00110809, global = 9.70143e-11
DICPCG:  Solving for p_rgh, Initial residual = 0.0102322, Final residual = 0.000421635, No Iterations 17
time step continuity errors : sum local = 5.24044e-05, global = 3.51714e-11
DICPCG:  Solving for p_rgh, Initial residual = 0.00174457, Final residual = 9.06558e-08, No Iterations 221
time step continuity errors : sum local = 1.13338e-08, global = 1.44939e-10, cumulative = -1.60966e-09
ExecutionTime = 7.77905 s  ClockTime = 8 s

Courant Number mean: 0.100675 max: 0.808765
Interface Courant Number mean: 0.0262318 max: 0.777707
deltaT = 0.01
Time = 0.41s

smoothSolver:  Solving for alpha.water, Initial residual = 0.0297127, Final residual = 2.45397e-10, No Iterations 4
Phase-1 volume fraction = 0.041  Min(alpha.water) = 2.42682e-44  Max(alpha.water) = 1
MULES: maxDeltaLambdaPhiCorrRes 0.0568573
MULES: maxDeltaLambdaPhiCorrRes 0.0403018
MULES: maxDeltaLambdaPhiCorrRes 0.00140418
MULES: Correcting alpha.water
MULES: maxDeltaLambdaPhiCorrRes 0.0768147
MULES: maxDeltaLambdaPhiCorrRes 0.0683531
MULES: maxDeltaLambdaPhiCorrRes 0.00934818
MULES: Correcting alpha.water
Phase-1 volume fraction = 0.041  Min(alpha.water) = 2.42682e-44  Max(alpha.water) = 1
DICPCG:  Solving for p_rgh, Initial residual = 0.18439, Final residual = 0.00870496, No Iterations 2
time step continuity errors : sum local = 0.00107302, global = 1.17381e-10
DICPCG:  Solving for p_rgh, Initial residual = 0.0105453, Final residual = 0.000506311, No Iterations 17
time step continuity errors : sum local = 6.17526e-05, global = -3.97131e-11
DICPCG:  Solving for p_rgh, Initial residual = 0.00183647, Final residual = 9.42324e-08, No Iterations 185
time step continuity errors : sum local = 1.15839e-08, global = -5.80538e-09, cumulative = -7.41504e-09
ExecutionTime = 7.89669 s  ClockTime = 8 s

Courant Number mean: 0.100863 max: 0.851221
Interface Courant Number mean: 0.0270784 max: 0.788771
deltaT = 0.01
Time = 0.42s

smoothSolver:  Solving for alpha.water, Initial residual = 0.0284841, Final residual = 2.67782e-10, No Iterations 4
Phase-1 volume fraction = 0.042  Min(alpha.water) = 2.92511e-44  Max(alpha.water) = 1
MULES: maxDeltaLambdaPhiCorrRes 0.0578548
MULES: maxDeltaLambdaPhiCorrRes 0.0453463
MULES: maxDeltaLambdaPhiCorrRes 0.00718349
MULES: Correcting alpha.water
MULES: maxDeltaLambdaPhiCorrRes 0.0731298
MULES: maxDeltaLambdaPhiCorrRes 0.0713229
MULES: maxDeltaLambdaPhiCorrRes 0.0131742
MULES: maxDeltaLambdaPhiCorrRes 0.00686344
MULES: Correcting alpha.water
Phase-1 volume fraction = 0.042  Min(alpha.water) = 2.92511e-44  Max(alpha.water) = 1
DICPCG:  Solving for p_rgh, Initial residual = 0.187254, Final residual = 0.0059419, No Iterations 3
time step continuity errors : sum local = 0.000724552, global = -1.17262e-08
DICPCG:  Solving for p_rgh, Initial residual = 0.00712742, Final residual = 0.000335425, No Iterations 19
time step continuity errors : sum local = 4.13981e-05, global = -1.19234e-08
DICPCG:  Solving for p_rgh, Initial residual = 0.00137156, Final residual = 8.91314e-08, No Iterations 221
time step continuity errors : sum local = 1.10758e-08, global = 1.19107e-10, cumulative = -7.29593e-09
ExecutionTime = 8.01746 s  ClockTime = 8 s

Courant Number mean: 0.101057 max: 0.861096
Interface Courant Number mean: 0.0252062 max: 0.791777
deltaT = 0.01
Time = 0.43s

smoothSolver:  Solving for alpha.water, Initial residual = 0.0294822, Final residual = 3.30999e-10, No Iterations 4
Phase-1 volume fraction = 0.043  Min(alpha.water) = 3.51498e-44  Max(alpha.water) = 1
MULES: maxDeltaLambdaPhiCorrRes 0.0709164
MULES: maxDeltaLambdaPhiCorrRes 0.0234349
MULES: maxDeltaLambdaPhiCorrRes 0.0017394
MULES: Correcting alpha.water
MULES: maxDeltaLambdaPhiCorrRes 0.0931349
MULES: maxDeltaLambdaPhiCorrRes 0.0663882
MULES: maxDeltaLambdaPhiCorrRes 0.00823996
MULES: Correcting alpha.water
Phase-1 volume fraction = 0.043  Min(alpha.water) = 3.51498e-44  Max(alpha.water) = 1
DICPCG:  Solving for p_rgh, Initial residual = 0.179616, Final residual = 0.00893105, No Iterations 2
time step continuity errors : sum local = 0.00118362, global = 6.19458e-09
DICPCG:  Solving for p_rgh, Initial residual = 0.0104772, Final residual = 0.00051604, No Iterations 13
time step continuity errors : sum local = 6.92032e-05, global = 6.2904e-09
DICPCG:  Solving for p_rgh, Initial residual = 0.00205938, Final residual = 8.73996e-08, No Iterations 221
time step continuity errors : sum local = 1.17531e-08, global = -2.5368e-10, cumulative = -7.54961e-09
ExecutionTime = 8.1368 s  ClockTime = 8 s

Courant Number mean: 0.101372 max: 0.825795
Interface Courant Number mean: 0.0250126 max: 0.811321
deltaT = 0.01
Time = 0.44s

smoothSolver:  Solving for alpha.water, Initial residual = 0.0292102, Final residual = 3.55548e-10, No Iterations 4
Phase-1 volume fraction = 0.044  Min(alpha.water) = 4.21164e-44  Max(alpha.water) = 1
MULES: maxDeltaLambdaPhiCorrRes 0.0387479
MULES: maxDeltaLambdaPhiCorrRes 0.037577
MULES: maxDeltaLambdaPhiCorrRes 0.00154697
MULES: Correcting alpha.water
MULES: maxDeltaLambdaPhiCorrRes 0.061672
MULES: maxDeltaLambdaPhiCorrRes 0.061672
MULES: maxDeltaLambdaPhiCorrRes 0.0116612
MULES: maxDeltaLambdaPhiCorrRes 0.000570552
MULES: Correcting alpha.water
Phase-1 volume fraction = 0.044  Min(alpha.water) = 4.21164e-44  Max(alpha.water) = 1
DICPCG:  Solving for p_rgh, Initial residual = 0.168256, Final residual = 0.00775916, No Iterations 2
time step continuity errors : sum local = 0.0011503, global = -5.78158e-10
DICPCG:  Solving for p_rgh, Initial residual = 0.00931039, Final residual = 0.000429339, No Iterations 18
time step continuity errors : sum local = 6.33852e-05, global = -1.07732e-10
DICPCG:  Solving for p_rgh, Initial residual = 0.00172711, Final residual = 8.76919e-08, No Iterations 219
time step continuity errors : sum local = 1.30612e-08, global = -5.35595e-11, cumulative = -7.60317e-09
ExecutionTime = 8.2621 s  ClockTime = 9 s

Courant Number mean: 0.101739 max: 0.842809
Interface Courant Number mean: 0.0254319 max: 0.791415
deltaT = 0.01
Time = 0.45s

smoothSolver:  Solving for alpha.water, Initial residual = 0.027357, Final residual = 3.79144e-10, No Iterations 4
Phase-1 volume fraction = 0.045  Min(alpha.water) = 5.03261e-44  Max(alpha.water) = 1
MULES: maxDeltaLambdaPhiCorrRes 0.0354785
MULES: maxDeltaLambdaPhiCorrRes 0.0328067
MULES: maxDeltaLambdaPhiCorrRes 0.00265137
MULES: Correcting alpha.water
MULES: maxDeltaLambdaPhiCorrRes 0.0682657
MULES: maxDeltaLambdaPhiCorrRes 0.0591007
MULES: maxDeltaLambdaPhiCorrRes 0.0113651
MULES: maxDeltaLambdaPhiCorrRes 0.000727353
MULES: Correcting alpha.water
Phase-1 volume fraction = 0.045  Min(alpha.water) = 5.03261e-44  Max(alpha.water) = 1
DICPCG:  Solving for p_rgh, Initial residual = 0.193385, Final residual = 0.0088357, No Iterations 2
time step continuity errors : sum local = 0.00124956, global = -9.36673e-11
DICPCG:  Solving for p_rgh, Initial residual = 0.0108973, Final residual = 0.000460802, No Iterations 17
time step continuity errors : sum local = 6.22366e-05, global = -9.08858e-11
DICPCG:  Solving for p_rgh, Initial residual = 0.00200388, Final residual = 8.99124e-08, No Iterations 219
time step continuity errors : sum local = 1.22159e-08, global = -1.37001e-10, cumulative = -7.74017e-09
ExecutionTime = 8.45869 s  ClockTime = 9 s

Courant Number mean: 0.101922 max: 0.813408
Interface Courant Number mean: 0.0257093 max: 0.784657
deltaT = 0.01
Time = 0.46s

smoothSolver:  Solving for alpha.water, Initial residual = 0.0275122, Final residual = 4.67524e-10, No Iterations 4
Phase-1 volume fraction = 0.046  Min(alpha.water) = 5.99806e-44  Max(alpha.water) = 1
MULES: maxDeltaLambdaPhiCorrRes 0.0568182
MULES: maxDeltaLambdaPhiCorrRes 0.0148093
MULES: maxDeltaLambdaPhiCorrRes 0.00165778
MULES: Correcting alpha.water
MULES: maxDeltaLambdaPhiCorrRes 0.0740608
MULES: maxDeltaLambdaPhiCorrRes 0.0571271
MULES: maxDeltaLambdaPhiCorrRes 0.00993371
MULES: Correcting alpha.water
Phase-1 volume fraction = 0.046  Min(alpha.water) = 5.99806e-44  Max(alpha.water) = 1
DICPCG:  Solving for p_rgh, Initial residual = 0.197573, Final residual = 0.00533815, No Iterations 3
time step continuity errors : sum local = 0.000713573, global = -1.19077e-10
DICPCG:  Solving for p_rgh, Initial residual = 0.00663703, Final residual = 0.000320229, No Iterations 20
time step continuity errors : sum local = 4.31424e-05, global = 4.56872e-11
DICPCG:  Solving for p_rgh, Initial residual = 0.00130987, Final residual = 8.91595e-08, No Iterations 218
time step continuity errors : sum local = 1.2054e-08, global = -2.12172e-11, cumulative = -7.76139e-09
ExecutionTime = 8.58359 s  ClockTime = 9 s

Courant Number mean: 0.101744 max: 0.763428
Interface Courant Number mean: 0.024735 max: 0.749906
deltaT = 0.01
Time = 0.47s

smoothSolver:  Solving for alpha.water, Initial residual = 0.0274306, Final residual = 5.01926e-10, No Iterations 4
Phase-1 volume fraction = 0.047  Min(alpha.water) = 7.13114e-44  Max(alpha.water) = 1
MULES: maxDeltaLambdaPhiCorrRes 0.0466109
MULES: maxDeltaLambdaPhiCorrRes 0.015884
MULES: maxDeltaLambdaPhiCorrRes 0.00210406
MULES: Correcting alpha.water
MULES: maxDeltaLambdaPhiCorrRes 0.0485285
MULES: maxDeltaLambdaPhiCorrRes 0.044676
MULES: maxDeltaLambdaPhiCorrRes 0.0102499
MULES: maxDeltaLambdaPhiCorrRes 0.0058342
MULES: Correcting alpha.water
Phase-1 volume fraction = 0.047  Min(alpha.water) = 7.13114e-44  Max(alpha.water) = 1
DICPCG:  Solving for p_rgh, Initial residual = 0.177161, Final residual = 0.00486853, No Iterations 3
time step continuity errors : sum local = 0.000709236, global = 2.53327e-12
DICPCG:  Solving for p_rgh, Initial residual = 0.0059614, Final residual = 0.000243832, No Iterations 20
time step continuity errors : sum local = 3.53233e-05, global = -2.69224e-11
DICPCG:  Solving for p_rgh, Initial residual = 0.00130467, Final residual = 8.45372e-08, No Iterations 218
time step continuity errors : sum local = 1.23023e-08, global = -1.05788e-10, cumulative = -7.86718e-09
ExecutionTime = 8.70359 s  ClockTime = 9 s

Courant Number mean: 0.101678 max: 0.755716
Interface Courant Number mean: 0.0240244 max: 0.719579
deltaT = 0.01
Time = 0.48s

smoothSolver:  Solving for alpha.water, Initial residual = 0.0263348, Final residual = 5.73741e-10, No Iterations 4
Phase-1 volume fraction = 0.048  Min(alpha.water) = 8.45844e-44  Max(alpha.water) = 1
MULES: maxDeltaLambdaPhiCorrRes 0.0436316
MULES: maxDeltaLambdaPhiCorrRes 0.0145948
MULES: maxDeltaLambdaPhiCorrRes 0.00217099
MULES: Correcting alpha.water
MULES: maxDeltaLambdaPhiCorrRes 0.0549446
MULES: maxDeltaLambdaPhiCorrRes 0.0480361
MULES: maxDeltaLambdaPhiCorrRes 0.0187475
MULES: maxDeltaLambdaPhiCorrRes 0.000832429
MULES: Correcting alpha.water
Phase-1 volume fraction = 0.048  Min(alpha.water) = 8.45844e-44  Max(alpha.water) = 1
DICPCG:  Solving for p_rgh, Initial residual = 0.181282, Final residual = 0.00904262, No Iterations 2
time step continuity errors : sum local = 0.00130783, global = -1.26643e-10
DICPCG:  Solving for p_rgh, Initial residual = 0.010878, Final residual = 0.000444755, No Iterations 16
time step continuity errors : sum local = 6.3161e-05, global = 8.96829e-12
DICPCG:  Solving for p_rgh, Initial residual = 0.0022138, Final residual = 9.54292e-08, No Iterations 175
time step continuity errors : sum local = 1.36396e-08, global = 5.57736e-09, cumulative = -2.28982e-09
ExecutionTime = 8.80819 s  ClockTime = 9 s

Courant Number mean: 0.10152 max: 0.71896
Interface Courant Number mean: 0.0237084 max: 0.71896
deltaT = 0.01
Time = 0.49s

smoothSolver:  Solving for alpha.water, Initial residual = 0.0258514, Final residual = 6.35971e-10, No Iterations 4
Phase-1 volume fraction = 0.049  Min(alpha.water) = 1.00104e-43  Max(alpha.water) = 1
MULES: maxDeltaLambdaPhiCorrRes 0.0442904
MULES: maxDeltaLambdaPhiCorrRes 0.0204418
MULES: maxDeltaLambdaPhiCorrRes 0.00440039
MULES: Correcting alpha.water
MULES: maxDeltaLambdaPhiCorrRes 0.065043
MULES: maxDeltaLambdaPhiCorrRes 0.065043
MULES: maxDeltaLambdaPhiCorrRes 0.0112499
MULES: maxDeltaLambdaPhiCorrRes 0.00194186
MULES: Correcting alpha.water
Phase-1 volume fraction = 0.049  Min(alpha.water) = 1.00104e-43  Max(alpha.water) = 1
DICPCG:  Solving for p_rgh, Initial residual = 0.178659, Final residual = 0.00815715, No Iterations 2
time step continuity errors : sum local = 0.00117669, global = 1.1095e-08
DICPCG:  Solving for p_rgh, Initial residual = 0.0099215, Final residual = 0.000438602, No Iterations 14
time step continuity errors : sum local = 6.28765e-05, global = 1.09953e-08
DICPCG:  Solving for p_rgh, Initial residual = 0.00206013, Final residual = 9.5391e-08, No Iterations 220
time step continuity errors : sum local = 1.37353e-08, global = -9.66628e-11, cumulative = -2.38648e-09
ExecutionTime = 8.92858 s  ClockTime = 9 s

Courant Number mean: 0.101484 max: 0.680351
Interface Courant Number mean: 0.0234082 max: 0.680351
deltaT = 0.01
Time = 0.5s

smoothSolver:  Solving for alpha.water, Initial residual = 0.0252239, Final residual = 6.44016e-10, No Iterations 4
Phase-1 volume fraction = 0.05  Min(alpha.water) = 1.18219e-43  Max(alpha.water) = 1
MULES: maxDeltaLambdaPhiCorrRes 0.0488473
MULES: maxDeltaLambdaPhiCorrRes 0.0221687
MULES: maxDeltaLambdaPhiCorrRes 0.00237971
MULES: Correcting alpha.water
MULES: maxDeltaLambdaPhiCorrRes 0.0507594
MULES: maxDeltaLambdaPhiCorrRes 0.0507594
MULES: maxDeltaLambdaPhiCorrRes 0.00773264
MULES: Correcting alpha.water
[...]
MULES: maxDeltaLambdaPhiCorrRes 0.0103424
MULES: maxDeltaLambdaPhiCorrRes 0.000994533
MULES: Correcting alpha.water
MULES: maxDeltaLambdaPhiCorrRes 0.0276767
MULES: maxDeltaLambdaPhiCorrRes 0.0266626
MULES: maxDeltaLambdaPhiCorrRes 0.000471763
MULES: Correcting alpha.water
Phase-1 volume fraction = 0.339524  Min(alpha.water) = -2.71051e-22  Max(alpha.water) = 1
DICPCG:  Solving for p_rgh, Initial residual = 0.0172586, Final residual = 0.000466411, No Iterations 2
time step continuity errors : sum local = 0.00117133, global = -5.03165e-07
DICPCG:  Solving for p_rgh, Initial residual = 0.000497183, Final residual = 2.41679e-05, No Iterations 8
time step continuity errors : sum local = 6.11874e-05, global = -3.30721e-07
DICPCG:  Solving for p_rgh, Initial residual = 5.49062e-05, Final residual = 9.7637e-08, No Iterations 193
time step continuity errors : sum local = 2.47171e-07, global = -5.01856e-09, cumulative = -1.83189e-06
ExecutionTime = 63.9881 s  ClockTime = 64 s

Courant Number mean: 0.103888 max: 0.551561
Interface Courant Number mean: 0.0168135 max: 0.551561
deltaT = 0.01
Time = 4.87s

smoothSolver:  Solving for alpha.water, Initial residual = 0.00235312, Final residual = 1.24665e-09, No Iterations 3
Phase-1 volume fraction = 0.339734  Min(alpha.water) = -1.08604e-33  Max(alpha.water) = 1
MULES: maxDeltaLambdaPhiCorrRes 0.026859
MULES: maxDeltaLambdaPhiCorrRes 0.0153495
MULES: maxDeltaLambdaPhiCorrRes 0.000853201
MULES: Correcting alpha.water
MULES: maxDeltaLambdaPhiCorrRes 0.0266035
MULES: maxDeltaLambdaPhiCorrRes 0.0221228
MULES: maxDeltaLambdaPhiCorrRes 0.00048689
MULES: Correcting alpha.water
Phase-1 volume fraction = 0.339735  Min(alpha.water) = -5.36363e-25  Max(alpha.water) = 1
DICPCG:  Solving for p_rgh, Initial residual = 0.0164433, Final residual = 0.000421447, No Iterations 2
time step continuity errors : sum local = 0.00106273, global = -3.87326e-07
DICPCG:  Solving for p_rgh, Initial residual = 0.000449589, Final residual = 2.11749e-05, No Iterations 7
time step continuity errors : sum local = 5.38376e-05, global = -2.2651e-07
DICPCG:  Solving for p_rgh, Initial residual = 4.92419e-05, Final residual = 9.72203e-08, No Iterations 92
time step continuity errors : sum local = 2.47159e-07, global = 3.19447e-08, cumulative = -1.79994e-06
ExecutionTime = 64.065 s  ClockTime = 64 s

Courant Number mean: 0.103883 max: 0.547133
Interface Courant Number mean: 0.0169008 max: 0.547133
deltaT = 0.01
Time = 4.88s

smoothSolver:  Solving for alpha.water, Initial residual = 0.00231192, Final residual = 1.22029e-09, No Iterations 3
Phase-1 volume fraction = 0.339944  Min(alpha.water) = -1.04253e-33  Max(alpha.water) = 1
MULES: maxDeltaLambdaPhiCorrRes 0.0267104
MULES: maxDeltaLambdaPhiCorrRes 0.0130198
MULES: maxDeltaLambdaPhiCorrRes 0.000862183
MULES: Correcting alpha.water
MULES: maxDeltaLambdaPhiCorrRes 0.0266942
MULES: maxDeltaLambdaPhiCorrRes 0.018022
MULES: maxDeltaLambdaPhiCorrRes 0.000472067
MULES: Correcting alpha.water
Phase-1 volume fraction = 0.339945  Min(alpha.water) = -5.57151e-25  Max(alpha.water) = 1
DICPCG:  Solving for p_rgh, Initial residual = 0.0164457, Final residual = 0.000392732, No Iterations 2
time step continuity errors : sum local = 0.000996269, global = -3.37536e-07
DICPCG:  Solving for p_rgh, Initial residual = 0.000421862, Final residual = 2.05972e-05, No Iterations 7
time step continuity errors : sum local = 5.26793e-05, global = -1.69349e-07
DICPCG:  Solving for p_rgh, Initial residual = 4.66327e-05, Final residual = 9.17206e-08, No Iterations 94
time step continuity errors : sum local = 2.34558e-07, global = 4.53962e-08, cumulative = -1.75455e-06
ExecutionTime = 64.1449 s  ClockTime = 64 s

Courant Number mean: 0.103859 max: 0.536633
Interface Courant Number mean: 0.016901 max: 0.536633
deltaT = 0.01
Time = 4.89s

smoothSolver:  Solving for alpha.water, Initial residual = 0.00229395, Final residual = 1.23139e-09, No Iterations 3
Phase-1 volume fraction = 0.340153  Min(alpha.water) = -1.00056e-33  Max(alpha.water) = 1
MULES: maxDeltaLambdaPhiCorrRes 0.0287597
MULES: maxDeltaLambdaPhiCorrRes 0.0153959
MULES: maxDeltaLambdaPhiCorrRes 0.000767753
MULES: Correcting alpha.water
MULES: maxDeltaLambdaPhiCorrRes 0.0287496
MULES: maxDeltaLambdaPhiCorrRes 0.0169045
MULES: maxDeltaLambdaPhiCorrRes 0.000977674
MULES: Correcting alpha.water
Phase-1 volume fraction = 0.340154  Min(alpha.water) = -3.17626e-24  Max(alpha.water) = 1
DICPCG:  Solving for p_rgh, Initial residual = 0.0164718, Final residual = 0.000398807, No Iterations 2
time step continuity errors : sum local = 0.00101732, global = -3.32325e-07
DICPCG:  Solving for p_rgh, Initial residual = 0.000426779, Final residual = 1.97615e-05, No Iterations 7
time step continuity errors : sum local = 5.08114e-05, global = -1.64635e-07
DICPCG:  Solving for p_rgh, Initial residual = 4.63813e-05, Final residual = 9.73356e-08, No Iterations 102
time step continuity errors : sum local = 2.50243e-07, global = 1.23757e-08, cumulative = -1.74217e-06
ExecutionTime = 64.2231 s  ClockTime = 65 s

Courant Number mean: 0.103822 max: 0.525828
Interface Courant Number mean: 0.0169358 max: 0.525828
deltaT = 0.01
Time = 4.9s

smoothSolver:  Solving for alpha.water, Initial residual = 0.00227753, Final residual = 1.23142e-09, No Iterations 3
Phase-1 volume fraction = 0.34036  Min(alpha.water) = -9.60099e-34  Max(alpha.water) = 1
MULES: maxDeltaLambdaPhiCorrRes 0.0308724
MULES: maxDeltaLambdaPhiCorrRes 0.0194146
MULES: maxDeltaLambdaPhiCorrRes 0.000724758
MULES: Correcting alpha.water
MULES: maxDeltaLambdaPhiCorrRes 0.0308724
MULES: maxDeltaLambdaPhiCorrRes 0.0286359
MULES: maxDeltaLambdaPhiCorrRes 0.000582879
MULES: Correcting alpha.water
Phase-1 volume fraction = 0.340362  Min(alpha.water) = -2.71051e-22  Max(alpha.water) = 1
DICPCG:  Solving for p_rgh, Initial residual = 0.0160611, Final residual = 0.000387016, No Iterations 2
time step continuity errors : sum local = 0.000991888, global = -3.91658e-07
DICPCG:  Solving for p_rgh, Initial residual = 0.000411563, Final residual = 2.03916e-05, No Iterations 7
time step continuity errors : sum local = 5.26817e-05, global = -2.36277e-07
DICPCG:  Solving for p_rgh, Initial residual = 4.62616e-05, Final residual = 9.9887e-08, No Iterations 102
time step continuity errors : sum local = 2.5803e-07, global = 5.12012e-08, cumulative = -1.69097e-06
ExecutionTime = 64.3756 s  ClockTime = 65 s

Courant Number mean: 0.10378 max: 0.52608
Interface Courant Number mean: 0.0168161 max: 0.52608
deltaT = 0.01
Time = 4.91s

smoothSolver:  Solving for alpha.water, Initial residual = 0.00227834, Final residual = 1.22893e-09, No Iterations 3
Phase-1 volume fraction = 0.340567  Min(alpha.water) = -9.21079e-34  Max(alpha.water) = 1
MULES: maxDeltaLambdaPhiCorrRes 0.0324546
MULES: maxDeltaLambdaPhiCorrRes 0.0181768
MULES: maxDeltaLambdaPhiCorrRes 0.000682125
MULES: Correcting alpha.water
MULES: maxDeltaLambdaPhiCorrRes 0.0324546
MULES: maxDeltaLambdaPhiCorrRes 0.0198626
MULES: maxDeltaLambdaPhiCorrRes 0.000470867
MULES: Correcting alpha.water
Phase-1 volume fraction = 0.340568  Min(alpha.water) = -2.64698e-25  Max(alpha.water) = 1
DICPCG:  Solving for p_rgh, Initial residual = 0.0157546, Final residual = 0.000385967, No Iterations 2
time step continuity errors : sum local = 0.000992669, global = -2.77968e-07
DICPCG:  Solving for p_rgh, Initial residual = 0.000407292, Final residual = 1.58801e-05, No Iterations 9
time step continuity errors : sum local = 4.11763e-05, global = -1.37301e-07
DICPCG:  Solving for p_rgh, Initial residual = 4.31007e-05, Final residual = 9.92931e-08, No Iterations 62
time step continuity errors : sum local = 2.57434e-07, global = 3.72008e-08, cumulative = -1.65377e-06
ExecutionTime = 64.4416 s  ClockTime = 65 s

Courant Number mean: 0.103763 max: 0.523948
Interface Courant Number mean: 0.0165877 max: 0.523948
deltaT = 0.01
Time = 4.92s

smoothSolver:  Solving for alpha.water, Initial residual = 0.00228823, Final residual = 1.2472e-09, No Iterations 3
Phase-1 volume fraction = 0.340773  Min(alpha.water) = -8.83455e-34  Max(alpha.water) = 1
MULES: maxDeltaLambdaPhiCorrRes 0.0254902
MULES: maxDeltaLambdaPhiCorrRes 0.0144052
MULES: maxDeltaLambdaPhiCorrRes 0.000666873
MULES: Correcting alpha.water
MULES: maxDeltaLambdaPhiCorrRes 0.0334785
MULES: maxDeltaLambdaPhiCorrRes 0.0154406
MULES: maxDeltaLambdaPhiCorrRes 0.000308276
MULES: Correcting alpha.water
Phase-1 volume fraction = 0.340774  Min(alpha.water) = -1.06659e-24  Max(alpha.water) = 1
DICPCG:  Solving for p_rgh, Initial residual = 0.0160594, Final residual = 0.000384489, No Iterations 2
time step continuity errors : sum local = 0.000992577, global = -3.30429e-07
DICPCG:  Solving for p_rgh, Initial residual = 0.000404443, Final residual = 1.61108e-05, No Iterations 9
time step continuity errors : sum local = 4.19202e-05, global = -2.82173e-07
DICPCG:  Solving for p_rgh, Initial residual = 4.41509e-05, Final residual = 9.48371e-08, No Iterations 68
time step continuity errors : sum local = 2.46739e-07, global = 9.88153e-09, cumulative = -1.64389e-06
ExecutionTime = 64.511 s  ClockTime = 65 s

Courant Number mean: 0.10376 max: 0.524321
Interface Courant Number mean: 0.0163639 max: 0.524321
deltaT = 0.01
Time = 4.93s

smoothSolver:  Solving for alpha.water, Initial residual = 0.00228399, Final residual = 1.24131e-09, No Iterations 3
Phase-1 volume fraction = 0.340978  Min(alpha.water) = -8.47179e-34  Max(alpha.water) = 1
MULES: maxDeltaLambdaPhiCorrRes 0.0295318
MULES: maxDeltaLambdaPhiCorrRes 0.0163141
MULES: maxDeltaLambdaPhiCorrRes 0.000739759
MULES: Correcting alpha.water
MULES: maxDeltaLambdaPhiCorrRes 0.0351948
MULES: maxDeltaLambdaPhiCorrRes 0.023134
MULES: maxDeltaLambdaPhiCorrRes 0.00469859
MULES: Correcting alpha.water
Phase-1 volume fraction = 0.340979  Min(alpha.water) = -1.32349e-25  Max(alpha.water) = 1
DICPCG:  Solving for p_rgh, Initial residual = 0.0159868, Final residual = 0.000385661, No Iterations 2
time step continuity errors : sum local = 0.000996773, global = -3.54396e-07
DICPCG:  Solving for p_rgh, Initial residual = 0.000406901, Final residual = 2.0053e-05, No Iterations 7
time step continuity errors : sum local = 5.2205e-05, global = -3.67262e-07
DICPCG:  Solving for p_rgh, Initial residual = 4.69637e-05, Final residual = 9.53748e-08, No Iterations 71
time step continuity errors : sum local = 2.48269e-07, global = -4.4043e-08, cumulative = -1.68793e-06
ExecutionTime = 64.5798 s  ClockTime = 65 s

Courant Number mean: 0.103744 max: 0.533329
Interface Courant Number mean: 0.0162437 max: 0.533329
deltaT = 0.01
Time = 4.94s

smoothSolver:  Solving for alpha.water, Initial residual = 0.00226615, Final residual = 1.25976e-09, No Iterations 3
Phase-1 volume fraction = 0.341182  Min(alpha.water) = -8.12199e-34  Max(alpha.water) = 1
MULES: maxDeltaLambdaPhiCorrRes 0.0196152
MULES: maxDeltaLambdaPhiCorrRes 0.014715
MULES: maxDeltaLambdaPhiCorrRes 0.000713046
MULES: Correcting alpha.water
MULES: maxDeltaLambdaPhiCorrRes 0.0165287
MULES: maxDeltaLambdaPhiCorrRes 0.0128618
MULES: maxDeltaLambdaPhiCorrRes 0.000806138
MULES: Correcting alpha.water
Phase-1 volume fraction = 0.341183  Min(alpha.water) = -3.38813e-23  Max(alpha.water) = 1
DICPCG:  Solving for p_rgh, Initial residual = 0.0156705, Final residual = 0.000377768, No Iterations 2
time step continuity errors : sum local = 0.00097646, global = -4.26416e-07
DICPCG:  Solving for p_rgh, Initial residual = 0.000399886, Final residual = 1.78292e-05, No Iterations 9
time step continuity errors : sum local = 4.64174e-05, global = -4.97208e-07
DICPCG:  Solving for p_rgh, Initial residual = 4.47929e-05, Final residual = 9.63225e-08, No Iterations 167
time step continuity errors : sum local = 2.50746e-07, global = -2.30435e-08, cumulative = -1.71098e-06
ExecutionTime = 64.6874 s  ClockTime = 65 s

Courant Number mean: 0.103722 max: 0.535753
Interface Courant Number mean: 0.0162758 max: 0.535753
deltaT = 0.01
Time = 4.95s

smoothSolver:  Solving for alpha.water, Initial residual = 0.00225412, Final residual = 1.22675e-09, No Iterations 3
Phase-1 volume fraction = 0.341385  Min(alpha.water) = -7.78493e-34  Max(alpha.water) = 1
MULES: maxDeltaLambdaPhiCorrRes 0.0193754
MULES: maxDeltaLambdaPhiCorrRes 0.0193754
MULES: maxDeltaLambdaPhiCorrRes 0.000725074
MULES: Correcting alpha.water
MULES: maxDeltaLambdaPhiCorrRes 0.0224927
MULES: maxDeltaLambdaPhiCorrRes 0.0224927
MULES: maxDeltaLambdaPhiCorrRes 0.000941
MULES: Correcting alpha.water
Phase-1 volume fraction = 0.341386  Min(alpha.water) = -8.47033e-24  Max(alpha.water) = 1
DICPCG:  Solving for p_rgh, Initial residual = 0.0153615, Final residual = 0.000376499, No Iterations 2
time step continuity errors : sum local = 0.000973057, global = -3.13659e-07
DICPCG:  Solving for p_rgh, Initial residual = 0.000398044, Final residual = 1.79039e-05, No Iterations 9
time step continuity errors : sum local = 4.66432e-05, global = -4.0008e-07
DICPCG:  Solving for p_rgh, Initial residual = 4.49181e-05, Final residual = 9.1256e-08, No Iterations 67
time step continuity errors : sum local = 2.37716e-07, global = -4.87184e-08, cumulative = -1.75969e-06
ExecutionTime = 64.8356 s  ClockTime = 65 s

Courant Number mean: 0.103699 max: 0.529731
Interface Courant Number mean: 0.0161721 max: 0.529731
deltaT = 0.01
Time = 4.96s

smoothSolver:  Solving for alpha.water, Initial residual = 0.00224878, Final residual = 1.21608e-09, No Iterations 3
Phase-1 volume fraction = 0.341588  Min(alpha.water) = -7.46019e-34  Max(alpha.water) = 1
MULES: maxDeltaLambdaPhiCorrRes 0.0223282
MULES: maxDeltaLambdaPhiCorrRes 0.0145627
MULES: maxDeltaLambdaPhiCorrRes 0.000769892
MULES: Correcting alpha.water
MULES: maxDeltaLambdaPhiCorrRes 0.020169
MULES: maxDeltaLambdaPhiCorrRes 0.020169
MULES: maxDeltaLambdaPhiCorrRes 0.000670826
MULES: Correcting alpha.water
Phase-1 volume fraction = 0.341589  Min(alpha.water) = -5.29292e-25  Max(alpha.water) = 1
DICPCG:  Solving for p_rgh, Initial residual = 0.0154717, Final residual = 0.000394074, No Iterations 2
time step continuity errors : sum local = 0.00101843, global = -3.84671e-07
DICPCG:  Solving for p_rgh, Initial residual = 0.000413829, Final residual = 1.6697e-05, No Iterations 9
time step continuity errors : sum local = 4.35e-05, global = -4.7478e-07
DICPCG:  Solving for p_rgh, Initial residual = 4.42303e-05, Final residual = 9.8491e-08, No Iterations 191
time step continuity errors : sum local = 2.5657e-07, global = 1.10441e-09, cumulative = -1.75859e-06
ExecutionTime = 64.9515 s  ClockTime = 65 s

Courant Number mean: 0.103672 max: 0.520569
Interface Courant Number mean: 0.0162779 max: 0.520569
deltaT = 0.01
Time = 4.97s

smoothSolver:  Solving for alpha.water, Initial residual = 0.00224328, Final residual = 1.19623e-09, No Iterations 3
Phase-1 volume fraction = 0.341789  Min(alpha.water) = -7.14738e-34  Max(alpha.water) = 1
MULES: maxDeltaLambdaPhiCorrRes 0.0186369
MULES: maxDeltaLambdaPhiCorrRes 0.0123704
MULES: maxDeltaLambdaPhiCorrRes 0.000855787
MULES: Correcting alpha.water
MULES: maxDeltaLambdaPhiCorrRes 0.0186369
MULES: maxDeltaLambdaPhiCorrRes 0.0132565
MULES: maxDeltaLambdaPhiCorrRes 0.000494767
MULES: Correcting alpha.water
Phase-1 volume fraction = 0.34179  Min(alpha.water) = -1.69564e-23  Max(alpha.water) = 1
DICPCG:  Solving for p_rgh, Initial residual = 0.0158298, Final residual = 0.000432349, No Iterations 2
time step continuity errors : sum local = 0.00111673, global = -2.58478e-07
DICPCG:  Solving for p_rgh, Initial residual = 0.000449865, Final residual = 2.1417e-05, No Iterations 9
time step continuity errors : sum local = 5.5755e-05, global = -3.59703e-07
DICPCG:  Solving for p_rgh, Initial residual = 4.60097e-05, Final residual = 9.43928e-08, No Iterations 97
time step continuity errors : sum local = 2.45709e-07, global = 3.7927e-09, cumulative = -1.7548e-06
ExecutionTime = 65.0346 s  ClockTime = 65 s

Courant Number mean: 0.103634 max: 0.515252
Interface Courant Number mean: 0.0163544 max: 0.514809
deltaT = 0.01
Time = 4.98s

smoothSolver:  Solving for alpha.water, Initial residual = 0.00225338, Final residual = 1.19284e-09, No Iterations 3
Phase-1 volume fraction = 0.341989  Min(alpha.water) = -6.84618e-34  Max(alpha.water) = 1
MULES: maxDeltaLambdaPhiCorrRes 0.0193853
MULES: maxDeltaLambdaPhiCorrRes 0.0106137
MULES: maxDeltaLambdaPhiCorrRes 0.000945287
MULES: Correcting alpha.water
MULES: maxDeltaLambdaPhiCorrRes 0.0221737
MULES: maxDeltaLambdaPhiCorrRes 0.0188431
MULES: maxDeltaLambdaPhiCorrRes 0.000457908
MULES: Correcting alpha.water
Phase-1 volume fraction = 0.34199  Min(alpha.water) = -8.56546e-24  Max(alpha.water) = 1
DICPCG:  Solving for p_rgh, Initial residual = 0.0157841, Final residual = 0.000479988, No Iterations 2
time step continuity errors : sum local = 0.00124093, global = -2.94963e-07
DICPCG:  Solving for p_rgh, Initial residual = 0.000496616, Final residual = 2.375e-05, No Iterations 7
time step continuity errors : sum local = 6.19311e-05, global = -3.74315e-07
DICPCG:  Solving for p_rgh, Initial residual = 4.82865e-05, Final residual = 9.85879e-08, No Iterations 134
time step continuity errors : sum local = 2.57045e-07, global = -2.67389e-08, cumulative = -1.78154e-06
ExecutionTime = 65.1288 s  ClockTime = 65 s

Courant Number mean: 0.103603 max: 0.517187
Interface Courant Number mean: 0.0163431 max: 0.517187
deltaT = 0.01
Time = 4.99s

smoothSolver:  Solving for alpha.water, Initial residual = 0.00226975, Final residual = 1.1865e-09, No Iterations 3
Phase-1 volume fraction = 0.342188  Min(alpha.water) = -6.55617e-34  Max(alpha.water) = 1
MULES: maxDeltaLambdaPhiCorrRes 0.0203732
MULES: maxDeltaLambdaPhiCorrRes 0.0121166
MULES: maxDeltaLambdaPhiCorrRes 0.000989751
MULES: Correcting alpha.water
MULES: maxDeltaLambdaPhiCorrRes 0.0248577
MULES: maxDeltaLambdaPhiCorrRes 0.0217617
MULES: maxDeltaLambdaPhiCorrRes 0.000548093
MULES: Correcting alpha.water
Phase-1 volume fraction = 0.342189  Min(alpha.water) = -4.27046e-24  Max(alpha.water) = 1
DICPCG:  Solving for p_rgh, Initial residual = 0.0159766, Final residual = 0.000485825, No Iterations 2
time step continuity errors : sum local = 0.00125948, global = -3.20311e-07
DICPCG:  Solving for p_rgh, Initial residual = 0.000504508, Final residual = 2.34369e-05, No Iterations 6
time step continuity errors : sum local = 6.12783e-05, global = -3.97237e-07
DICPCG:  Solving for p_rgh, Initial residual = 4.1978e-05, Final residual = 9.88307e-08, No Iterations 197
time step continuity errors : sum local = 2.58369e-07, global = -2.20375e-09, cumulative = -1.78374e-06
ExecutionTime = 65.2421 s  ClockTime = 66 s

Courant Number mean: 0.1036 max: 0.519675
Interface Courant Number mean: 0.0164909 max: 0.51109
deltaT = 0.01
Time = 5s

smoothSolver:  Solving for alpha.water, Initial residual = 0.00227833, Final residual = 1.19068e-09, No Iterations 3
Phase-1 volume fraction = 0.342386  Min(alpha.water) = -6.27707e-34  Max(alpha.water) = 1
MULES: maxDeltaLambdaPhiCorrRes 0.0179654
MULES: maxDeltaLambdaPhiCorrRes 0.0110495
MULES: maxDeltaLambdaPhiCorrRes 0.000958666
MULES: Correcting alpha.water
MULES: maxDeltaLambdaPhiCorrRes 0.0157712
MULES: maxDeltaLambdaPhiCorrRes 0.0157712
MULES: maxDeltaLambdaPhiCorrRes 0.000758284
MULES: Correcting alpha.water
Phase-1 volume fraction = 0.342387  Min(alpha.water) = -2.15227e-24  Max(alpha.water) = 1
DICPCG:  Solving for p_rgh, Initial residual = 0.0159136, Final residual = 0.000455551, No Iterations 2
time step continuity errors : sum local = 0.00118475, global = -2.20157e-07
DICPCG:  Solving for p_rgh, Initial residual = 0.000474901, Final residual = 1.81393e-05, No Iterations 7
time step continuity errors : sum local = 4.75862e-05, global = -3.03822e-07
DICPCG:  Solving for p_rgh, Initial residual = 4.63731e-05, Final residual = 8.35614e-08, No Iterations 89
time step continuity errors : sum local = 2.19186e-07, global = 1.18646e-08, cumulative = -1.77188e-06
ExecutionTime = 65.3887 s  ClockTime = 66 s

End

